<?xml version="1.0" encoding="UTF-8"?>

<!-- generated on 2022-09-17 09:54:22 by Eclipse SUMO netedit Version 1.14.1
<configuration xmlns:xsi="http://www.w3.org/2001/XMLSchema-instance" xsi:noNamespaceSchemaLocation="http://sumo.dlr.de/xsd/netconvertConfiguration.xsd">

    <input>
        <sumo-net-file value="/home/vishwajeet/ddp_workspace/src/mrpp_iot/graph_sumo/iit_delhi.net.xml"/>
    </input>

    <output>
        <output-file value="/home/vishwajeet/ddp_workspace/src/mrpp_iot/graph_sumo/iit_delhi.net.xml"/>
    </output>

    <processing>
        <geometry.min-radius.fix.railways value="false"/>
        <geometry.max-grade.fix value="false"/>
        <offset.disable-normalization value="true"/>
        <lefthand value="false"/>
    </processing>

    <junctions>
        <no-turnarounds value="true"/>
        <junctions.corner-detail value="5"/>
        <junctions.limit-turn-speed value="5.5"/>
        <rectangular-lane-cut value="false"/>
    </junctions>

    <pedestrian>
        <walkingareas value="false"/>
    </pedestrian>

</configuration>
-->

<connections version="1.9" xmlns:xsi="http://www.w3.org/2001/XMLSchema-instance" xsi:noNamespaceSchemaLocation="http://sumo.dlr.de/xsd/connections_file.xsd">
    <connection from="2102480543to4233524597" to="4233524597to4233654441" fromLane="0" toLane="0"/>
    <connection from="2102480543to4233524597" to="4233524597to4233524596" fromLane="0" toLane="0"/>
    <connection from="2102480543to4233524597" to="4233524597to2102480543" fromLane="0" toLane="0"/>

    <connection from="2102480543to4233524600" to="4233524600to4233524596" fromLane="0" toLane="0"/>
    <connection from="2102480543to4233524600" to="4233524600to4233524604" fromLane="0" toLane="0"/>
    <connection from="2102480543to4233524600" to="4233524600to9186411596" fromLane="0" toLane="0"/>
    <connection from="2102480543to4233524600" to="4233524600to2102480543" fromLane="0" toLane="0"/>

    <connection from="2102480543to4233654430" to="4233654430to4233654439" fromLane="0" toLane="0"/>
    <connection from="2102480543to4233654430" to="4233654430to4233654471" fromLane="0" toLane="0"/>
    <connection from="2102480543to4233654430" to="4233654430to2102480543" fromLane="0" toLane="0"/>

    <connection from="2102480543to9186411596" to="9186411596to4233524600" fromLane="0" toLane="0"/>
    <connection from="2102480543to9186411596" to="9186411596to4233524607" fromLane="0" toLane="0"/>
    <connection from="2102480543to9186411596" to="9186411596to2102480543" fromLane="0" toLane="0"/>

    <connection from="2102480576to4233654441" to="4233654441to4233654463" fromLane="0" toLane="0"/>
    <connection from="2102480576to4233654441" to="4233654441to4233524597" fromLane="0" toLane="0"/>
    <connection from="2102480576to4233654441" to="4233654441to2102480576" fromLane="0" toLane="0"/>

    <connection from="2102480576to4233654471" to="4233654471to4233654430" fromLane="0" toLane="0"/>
    <connection from="2102480576to4233654471" to="4233654471to4233654506" fromLane="0" toLane="0"/>
    <connection from="2102480576to4233654471" to="4233654471to2102480576" fromLane="0" toLane="0"/>

    <connection from="2102480576to4233654485" to="4233654485to4233654504" fromLane="0" toLane="0"/>
    <connection from="2102480576to4233654485" to="4233654485to4233654463" fromLane="0" toLane="0"/>
    <connection from="2102480576to4233654485" to="4233654485to2102480576" fromLane="0" toLane="0"/>

    <connection from="2102480576to4233654506" to="4233654506to4233654471" fromLane="0" toLane="0"/>
    <connection from="2102480576to4233654506" to="4233654506to4233524611" fromLane="0" toLane="0"/>
    <connection from="2102480576to4233654506" to="4233654506to4233654504" fromLane="0" toLane="0"/>
    <connection from="2102480576to4233654506" to="4233654506to2102480576" fromLane="0" toLane="0"/>

    <connection from="2102480797to4233524611" to="4233524611to4233524616" fromLane="0" toLane="0"/>
    <connection from="2102480797to4233524611" to="4233524611to4233654506" fromLane="0" toLane="0"/>
    <connection from="2102480797to4233524611" to="4233524611to4233654517" fromLane="0" toLane="0"/>
    <connection from="2102480797to4233524611" to="4233524611to2102480797" fromLane="0" toLane="0"/>

    <connection from="2102480797to4233524615" to="4233524615to4233654563" fromLane="0" toLane="0"/>
    <connection from="2102480797to4233524615" to="4233524615to4233524619" fromLane="0" toLane="0"/>
    <connection from="2102480797to4233524615" to="4233524615to4233524616" fromLane="0" toLane="0"/>
    <connection from="2102480797to4233524615" to="4233524615to2102480797" fromLane="0" toLane="0"/>

    <connection from="2102480797to4233654563" to="4233654563to4233654546" fromLane="0" toLane="0"/>
    <connection from="2102480797to4233654563" to="4233654563to4233524615" fromLane="0" toLane="0"/>
    <connection from="2102480797to4233654563" to="4233654563to2102480797" fromLane="0" toLane="0"/>

    <connection from="2102480799to2102480800" to="2102480800to4233524618" fromLane="0" toLane="0"/>
    <connection from="2102480799to2102480800" to="2102480800to2102480803" fromLane="0" toLane="0"/>
    <connection from="2102480799to2102480800" to="2102480800to4233654565" fromLane="0" toLane="0"/>
    <connection from="2102480799to2102480800" to="2102480800to2102480799" fromLane="0" toLane="0"/>

    <connection from="2102480799to2102480801" to="2102480801to4233524618" fromLane="0" toLane="0"/>

    <connection from="2102480799to4233654507" to="4233654507to4233524608" fromLane="0" toLane="0"/>
    <connection from="2102480799to4233654507" to="4233654507to4233654501" fromLane="0" toLane="0"/>
    <connection from="2102480799to4233654507" to="4233654507to2102480799" fromLane="0" toLane="0"/>

    <connection from="2102480800to2102480799" to="2102480799to4233654507" fromLane="0" toLane="0"/>
    <connection from="2102480800to2102480799" to="2102480799to2102480801" fromLane="0" toLane="0"/>
    <connection from="2102480800to2102480799" to="2102480799to2102480800" fromLane="0" toLane="0"/>

    <connection from="2102480800to2102480803" to="2102480803to2102480808" fromLane="0" toLane="0"/>
    <connection from="2102480800to2102480803" to="2102480803to4233524625" fromLane="0" toLane="0"/>
    <connection from="2102480800to2102480803" to="2102480803to4233524619" fromLane="0" toLane="0"/>
    <connection from="2102480800to2102480803" to="2102480803to2102480800" fromLane="0" toLane="0"/>

    <connection from="2102480800to4233524618" to="4233524618to2102480801" fromLane="0" toLane="0"/>
    <connection from="2102480800to4233524618" to="4233524618to9186411589" fromLane="0" toLane="0"/>
    <connection from="2102480800to4233524618" to="4233524618to2102480800" fromLane="0" toLane="0"/>

    <connection from="2102480800to4233654565" to="4233654565to4233524610" fromLane="0" toLane="0"/>
    <connection from="2102480800to4233654565" to="4233654565to4233654536" fromLane="0" toLane="0"/>
    <connection from="2102480800to4233654565" to="4233654565to2102480800" fromLane="0" toLane="0"/>

    <connection from="2102480801to2102480799" to="2102480799to2102480800" fromLane="0" toLane="0"/>
    <connection from="2102480801to2102480799" to="2102480799to4233654507" fromLane="0" toLane="0"/>
    <connection from="2102480801to2102480799" to="2102480799to2102480801" fromLane="0" toLane="0"/>

    <connection from="2102480801to4233524618" to="4233524618to9186411589" fromLane="0" toLane="0"/>
    <connection from="2102480801to4233524618" to="4233524618to2102480800" fromLane="0" toLane="0"/>
    <connection from="2102480801to4233524618" to="4233524618to2102480801" fromLane="0" toLane="0"/>

    <connection from="2102480803to2102480800" to="2102480800to4233654565" fromLane="0" toLane="0"/>
    <connection from="2102480803to2102480800" to="2102480800to2102480799" fromLane="0" toLane="0"/>
    <connection from="2102480803to2102480800" to="2102480800to4233524618" fromLane="0" toLane="0"/>
    <connection from="2102480803to2102480800" to="2102480800to2102480803" fromLane="0" toLane="0"/>

    <connection from="2102480803to2102480808" to="2102480808to4233524646" fromLane="0" toLane="0"/>

    <connection from="2102480803to4233524619" to="4233524619to4233524620" fromLane="0" toLane="0"/>
    <connection from="2102480803to4233524619" to="4233524619to4233524615" fromLane="0" toLane="0"/>
    <connection from="2102480803to4233524619" to="4233524619to2102480803" fromLane="0" toLane="0"/>

    <connection from="2102480803to4233524625" to="4233524625to4233524653" fromLane="0" toLane="0"/>
    <connection from="2102480803to4233524625" to="4233524625to4233524620" fromLane="0" toLane="0"/>
    <connection from="2102480803to4233524625" to="4233524625to2102480803" fromLane="0" toLane="0"/>

    <connection from="2102480805to4233524646" to="4233524646to4233524659" fromLane="0" toLane="0"/>
    <connection from="2102480805to4233524646" to="4233524646to2102480808" fromLane="0" toLane="0"/>
    <connection from="2102480805to4233524646" to="4233524646to2102480805" fromLane="0" toLane="0"/>

    <connection from="2102480805to9186411589" to="9186411589to4233524618" fromLane="0" toLane="0"/>

    <connection from="2102480808to2102480803" to="2102480803to4233524625" fromLane="0" toLane="0"/>
    <connection from="2102480808to2102480803" to="2102480803to4233524619" fromLane="0" toLane="0"/>
    <connection from="2102480808to2102480803" to="2102480803to2102480800" fromLane="0" toLane="0"/>
    <connection from="2102480808to2102480803" to="2102480803to2102480808" fromLane="0" toLane="0"/>

    <connection from="2102480808to4233524646" to="4233524646to2102480805" fromLane="0" toLane="0"/>
    <connection from="2102480808to4233524646" to="4233524646to4233524659" fromLane="0" toLane="0"/>
    <connection from="2102480808to4233524646" to="4233524646to2102480808" fromLane="0" toLane="0"/>

    <connection from="301037252to4233527012" to="4233527012to4233527014" fromLane="0" toLane="0"/>
    <connection from="301037252to4233527012" to="4233527012to6758737653" fromLane="0" toLane="0"/>
    <connection from="301037252to4233527012" to="4233527012to301037252" fromLane="0" toLane="0"/>

    <connection from="301037252to564483461" to="564483461to301037253" fromLane="0" toLane="0"/>
    <connection from="301037252to564483461" to="564483461to564483459" fromLane="0" toLane="0"/>
    <connection from="301037252to564483461" to="564483461to301037252" fromLane="0" toLane="0"/>

    <connection from="301037252to564483463" to="564483463to564483459" fromLane="0" toLane="0"/>
    <connection from="301037252to564483463" to="564483463to3055043751" fromLane="0" toLane="0"/>
    <connection from="301037252to564483463" to="564483463to301037252" fromLane="0" toLane="0"/>

    <connection from="301037253to301037255" to="301037255to4233524684" fromLane="0" toLane="0"/>
    <connection from="301037253to301037255" to="301037255to3636985389" fromLane="0" toLane="0"/>
    <connection from="301037253to301037255" to="301037255to301037253" fromLane="0" toLane="0"/>

    <connection from="301037253to4233527053" to="4233527053to564483496" fromLane="0" toLane="0"/>
    <connection from="301037253to4233527053" to="4233527053to9835218071" fromLane="0" toLane="0"/>
    <connection from="301037253to4233527053" to="4233527053to301037253" fromLane="0" toLane="0"/>

    <connection from="301037253to564483461" to="564483461to564483459" fromLane="0" toLane="0"/>
    <connection from="301037253to564483461" to="564483461to301037252" fromLane="0" toLane="0"/>
    <connection from="301037253to564483461" to="564483461to301037253" fromLane="0" toLane="0"/>

    <connection from="301037254to4233527085" to="4233527085to4233527081" fromLane="0" toLane="0"/>

    <connection from="301037254to473651125" to="473651125to564483496" fromLane="0" toLane="0"/>
    <connection from="301037254to473651125" to="473651125to4999072816" fromLane="0" toLane="0"/>
    <connection from="301037254to473651125" to="473651125to301037254" fromLane="0" toLane="0"/>

    <connection from="301037254to564483517" to="564483517to4233527074" fromLane="0" toLane="0"/>
    <connection from="301037254to564483517" to="564483517to564483496" fromLane="0" toLane="0"/>
    <connection from="301037254to564483517" to="564483517to301037254" fromLane="0" toLane="0"/>

    <connection from="301037255to301037253" to="301037253to564483461" fromLane="0" toLane="0"/>
    <connection from="301037255to301037253" to="301037253to4233527053" fromLane="0" toLane="0"/>
    <connection from="301037255to301037253" to="301037253to301037255" fromLane="0" toLane="0"/>

    <connection from="301037255to3636985389" to="3636985389to3636985386" fromLane="0" toLane="0"/>

    <connection from="301037255to4233524684" to="4233524684to6380513447" fromLane="0" toLane="0"/>
    <connection from="301037255to4233524684" to="4233524684to3636985377" fromLane="0" toLane="0"/>
    <connection from="301037255to4233524684" to="4233524684to301037255" fromLane="0" toLane="0"/>

    <connection from="3055043750to3055043751" to="3055043751to564483463" fromLane="0" toLane="0"/>
    <connection from="3055043750to3055043751" to="3055043751to4233524645" fromLane="0" toLane="0"/>
    <connection from="3055043750to3055043751" to="3055043751to3055043750" fromLane="0" toLane="0"/>

    <connection from="3055043750to4233527014" to="4233527014to4233527016" fromLane="0" toLane="0"/>
    <connection from="3055043750to4233527014" to="4233527014to4233527012" fromLane="0" toLane="0"/>
    <connection from="3055043750to4233527014" to="4233527014to3055043750" fromLane="0" toLane="0"/>

    <connection from="3055043750to9865522290" to="9865522290to5251925075" fromLane="0" toLane="0"/>
    <connection from="3055043750to9865522290" to="9865522290to4233527022" fromLane="0" toLane="0"/>
    <connection from="3055043750to9865522290" to="9865522290to3055043750" fromLane="0" toLane="0"/>

    <connection from="3055043751to3055043750" to="3055043750to9865522290" fromLane="0" toLane="0"/>
    <connection from="3055043751to3055043750" to="3055043750to4233527014" fromLane="0" toLane="0"/>
    <connection from="3055043751to3055043750" to="3055043750to3055043751" fromLane="0" toLane="0"/>

    <connection from="3055043751to4233524645" to="4233524645to3635907914" fromLane="0" toLane="0"/>
    <connection from="3055043751to4233524645" to="4233524645to4233654625" fromLane="0" toLane="0"/>
    <connection from="3055043751to4233524645" to="4233524645to3055043751" fromLane="0" toLane="0"/>

    <connection from="3055043751to564483463" to="564483463to301037252" fromLane="0" toLane="0"/>
    <connection from="3055043751to564483463" to="564483463to564483459" fromLane="0" toLane="0"/>
    <connection from="3055043751to564483463" to="564483463to3055043751" fromLane="0" toLane="0"/>

    <connection from="3055043752to3178456078" to="3178456078to4233527016" fromLane="0" toLane="0"/>
    <connection from="3055043752to3178456078" to="3178456078to4233527043" fromLane="0" toLane="0"/>
    <connection from="3055043752to3178456078" to="3178456078to9835228889" fromLane="0" toLane="0"/>
    <connection from="3055043752to3178456078" to="3178456078to3055043752" fromLane="0" toLane="0"/>

    <connection from="3055043752to4999072808" to="4999072808to4999072807" fromLane="0" toLane="0"/>
    <connection from="3055043752to4999072808" to="4999072808to4999072804" fromLane="0" toLane="0"/>
    <connection from="3055043752to4999072808" to="4999072808to3055043752" fromLane="0" toLane="0"/>

    <connection from="3055043752to6758737653" to="6758737653to4233527012" fromLane="0" toLane="0"/>
    <connection from="3055043752to6758737653" to="6758737653to6758737650" fromLane="0" toLane="0"/>
    <connection from="3055043752to6758737653" to="6758737653to3055043752" fromLane="0" toLane="0"/>

    <connection from="3178456078to3055043752" to="3055043752to4999072808" fromLane="0" toLane="0"/>
    <connection from="3178456078to3055043752" to="3055043752to6758737653" fromLane="0" toLane="0"/>
    <connection from="3178456078to3055043752" to="3055043752to3178456078" fromLane="0" toLane="0"/>

    <connection from="3178456078to4233527016" to="4233527016to4233527014" fromLane="0" toLane="0"/>
    <connection from="3178456078to4233527016" to="4233527016to4233527017" fromLane="0" toLane="0"/>
    <connection from="3178456078to4233527016" to="4233527016to3178456078" fromLane="0" toLane="0"/>

    <connection from="3178456078to4233527043" to="4233527043to4233527017" fromLane="0" toLane="0"/>
    <connection from="3178456078to4233527043" to="4233527043to4233527044" fromLane="0" toLane="0"/>
    <connection from="3178456078to4233527043" to="4233527043to3178456078" fromLane="0" toLane="0"/>

    <connection from="3178456078to9835228889" to="9835228889to3178456078" fromLane="0" toLane="0"/>

    <connection from="3635907904to3636985377" to="3636985377to4233524684" fromLane="0" toLane="0"/>
    <connection from="3635907904to3636985377" to="3636985377to3636985378" fromLane="0" toLane="0"/>
    <connection from="3635907904to3636985377" to="3636985377to3635907904" fromLane="0" toLane="0"/>

    <connection from="3635907904to4233524657" to="4233524657to4233524665" fromLane="0" toLane="0"/>
    <connection from="3635907904to4233524657" to="4233524657to564483317" fromLane="0" toLane="0"/>
    <connection from="3635907904to4233524657" to="4233524657to3635907904" fromLane="0" toLane="0"/>

    <connection from="3635907904to4233524660" to="4233524660to4233524647" fromLane="0" toLane="0"/>
    <connection from="3635907904to4233524660" to="4233524660to4233524656" fromLane="0" toLane="0"/>
    <connection from="3635907904to4233524660" to="4233524660to3635907904" fromLane="0" toLane="0"/>

    <connection from="3635907910to4233524655" to="4233524655to4233524648" fromLane="0" toLane="0"/>
    <connection from="3635907910to4233524655" to="4233524655to564483317" fromLane="0" toLane="0"/>
    <connection from="3635907910to4233524655" to="4233524655to3635907910" fromLane="0" toLane="0"/>

    <connection from="3635907910to9835190696" to="9835190696to5034101924" fromLane="0" toLane="0"/>
    <connection from="3635907910to9835190696" to="9835190696to3635907923" fromLane="0" toLane="0"/>
    <connection from="3635907910to9835190696" to="9835190696to3635907910" fromLane="0" toLane="0"/>

    <connection from="3635907910to9835190697" to="9835190697to3636985378" fromLane="0" toLane="0"/>
    <connection from="3635907910to9835190697" to="9835190697to6095495876" fromLane="0" toLane="0"/>
    <connection from="3635907910to9835190697" to="9835190697to3635907910" fromLane="0" toLane="0"/>

    <connection from="3635907914to4233524645" to="4233524645to4233654625" fromLane="0" toLane="0"/>
    <connection from="3635907914to4233524645" to="4233524645to3055043751" fromLane="0" toLane="0"/>
    <connection from="3635907914to4233524645" to="4233524645to3635907914" fromLane="0" toLane="0"/>

    <connection from="3635907914to9835164854" to="9835164854to4233524652" fromLane="0" toLane="0"/>
    <connection from="3635907914to9835164854" to="9835164854to9835164855" fromLane="0" toLane="0"/>
    <connection from="3635907914to9835164854" to="9835164854to3635907914" fromLane="0" toLane="0"/>

    <connection from="3635907914to9835164855" to="9835164855to9835164854" fromLane="0" toLane="0"/>
    <connection from="3635907914to9835164855" to="9835164855to4233524638" fromLane="0" toLane="0"/>
    <connection from="3635907914to9835164855" to="9835164855to3635907914" fromLane="0" toLane="0"/>

    <connection from="3635907923to4233524639" to="4233524639to4233524636" fromLane="0" toLane="0"/>
    <connection from="3635907923to4233524639" to="4233524639to4233524641" fromLane="0" toLane="0"/>
    <connection from="3635907923to4233524639" to="4233524639to3635907923" fromLane="0" toLane="0"/>

    <connection from="3635907923to9835190659" to="9835190659to3635907929" fromLane="0" toLane="0"/>
    <connection from="3635907923to9835190659" to="9835190659to4233524636" fromLane="0" toLane="0"/>
    <connection from="3635907923to9835190659" to="9835190659to3635907923" fromLane="0" toLane="0"/>

    <connection from="3635907923to9835190696" to="9835190696to3635907910" fromLane="0" toLane="0"/>
    <connection from="3635907923to9835190696" to="9835190696to5034101924" fromLane="0" toLane="0"/>
    <connection from="3635907923to9835190696" to="9835190696to3635907923" fromLane="0" toLane="0"/>

    <connection from="3635907929to3635907930" to="3635907930to3635907938" fromLane="0" toLane="0"/>
    <connection from="3635907929to3635907930" to="3635907930to9835190695" fromLane="0" toLane="0"/>
    <connection from="3635907929to3635907930" to="3635907930to3635907929" fromLane="0" toLane="0"/>

    <connection from="3635907929to9835190659" to="9835190659to4233524636" fromLane="0" toLane="0"/>
    <connection from="3635907929to9835190659" to="9835190659to3635907923" fromLane="0" toLane="0"/>
    <connection from="3635907929to9835190659" to="9835190659to3635907929" fromLane="0" toLane="0"/>

    <connection from="3635907929to9835190693" to="9835190693to9835190695" fromLane="0" toLane="0"/>
    <connection from="3635907929to9835190693" to="9835190693to4233524630" fromLane="0" toLane="0"/>
    <connection from="3635907929to9835190693" to="9835190693to3635907929" fromLane="0" toLane="0"/>

    <connection from="3635907930to3635907929" to="3635907929to9835190693" fromLane="0" toLane="0"/>
    <connection from="3635907930to3635907929" to="3635907929to9835190659" fromLane="0" toLane="0"/>
    <connection from="3635907930to3635907929" to="3635907929to3635907930" fromLane="0" toLane="0"/>

    <connection from="3635907930to3635907938" to="3635907938to4233654570" fromLane="0" toLane="0"/>

    <connection from="3635907930to9835190695" to="9835190695to4233654570" fromLane="0" toLane="0"/>
    <connection from="3635907930to9835190695" to="9835190695to9835190693" fromLane="0" toLane="0"/>
    <connection from="3635907930to9835190695" to="9835190695to3635907930" fromLane="0" toLane="0"/>

    <connection from="3635907938to3635907930" to="3635907930to9835190695" fromLane="0" toLane="0"/>
    <connection from="3635907938to3635907930" to="3635907930to3635907929" fromLane="0" toLane="0"/>
    <connection from="3635907938to3635907930" to="3635907930to3635907938" fromLane="0" toLane="0"/>

    <connection from="3635907938to4233654570" to="4233654570to9835190695" fromLane="0" toLane="0"/>

    <connection from="3636985377to3635907904" to="3635907904to4233524657" fromLane="0" toLane="0"/>
    <connection from="3636985377to3635907904" to="3635907904to4233524660" fromLane="0" toLane="0"/>
    <connection from="3636985377to3635907904" to="3635907904to3636985377" fromLane="0" toLane="0"/>

    <connection from="3636985377to3636985378" to="3636985378to3636985385" fromLane="0" toLane="0"/>
    <connection from="3636985377to3636985378" to="3636985378to6095495876" fromLane="0" toLane="0"/>
    <connection from="3636985377to3636985378" to="3636985378to9835190697" fromLane="0" toLane="0"/>
    <connection from="3636985377to3636985378" to="3636985378to3636985377" fromLane="0" toLane="0"/>

    <connection from="3636985377to4233524684" to="4233524684to301037255" fromLane="0" toLane="0"/>
    <connection from="3636985377to4233524684" to="4233524684to6380513447" fromLane="0" toLane="0"/>
    <connection from="3636985377to4233524684" to="4233524684to3636985377" fromLane="0" toLane="0"/>

    <connection from="3636985378to3636985377" to="3636985377to3635907904" fromLane="0" toLane="0"/>
    <connection from="3636985378to3636985377" to="3636985377to4233524684" fromLane="0" toLane="0"/>
    <connection from="3636985378to3636985377" to="3636985377to3636985378" fromLane="0" toLane="0"/>

    <connection from="3636985378to3636985385" to="3636985385to3636985378" fromLane="0" toLane="0"/>

    <connection from="3636985378to6095495876" to="6095495876to5034101924" fromLane="0" toLane="0"/>
    <connection from="3636985378to6095495876" to="6095495876to9835190697" fromLane="0" toLane="0"/>
    <connection from="3636985378to6095495876" to="6095495876to3636985378" fromLane="0" toLane="0"/>

    <connection from="3636985378to9835190697" to="9835190697to6095495876" fromLane="0" toLane="0"/>
    <connection from="3636985378to9835190697" to="9835190697to3635907910" fromLane="0" toLane="0"/>
    <connection from="3636985378to9835190697" to="9835190697to3636985378" fromLane="0" toLane="0"/>

    <connection from="3636985385to3636985378" to="3636985378to6095495876" fromLane="0" toLane="0"/>
    <connection from="3636985385to3636985378" to="3636985378to9835190697" fromLane="0" toLane="0"/>
    <connection from="3636985385to3636985378" to="3636985378to3636985377" fromLane="0" toLane="0"/>
    <connection from="3636985385to3636985378" to="3636985378to3636985385" fromLane="0" toLane="0"/>

    <connection from="3636985386to3636985389" to="3636985389to301037255" fromLane="0" toLane="0"/>

    <connection from="3636985386to564483459" to="564483459to564483463" fromLane="0" toLane="0"/>
    <connection from="3636985386to564483459" to="564483459to564483461" fromLane="0" toLane="0"/>
    <connection from="3636985386to564483459" to="564483459to3636985386" fromLane="0" toLane="0"/>

    <connection from="3636985389to301037255" to="301037255to301037253" fromLane="0" toLane="0"/>
    <connection from="3636985389to301037255" to="301037255to4233524684" fromLane="0" toLane="0"/>
    <connection from="3636985389to301037255" to="301037255to3636985389" fromLane="0" toLane="0"/>

    <connection from="3636985389to3636985386" to="3636985386to564483459" fromLane="0" toLane="0"/>

    <connection from="4233524596to4233524597" to="4233524597to2102480543" fromLane="0" toLane="0"/>
    <connection from="4233524596to4233524597" to="4233524597to4233654441" fromLane="0" toLane="0"/>
    <connection from="4233524596to4233524597" to="4233524597to4233524596" fromLane="0" toLane="0"/>

    <connection from="4233524596to4233524600" to="4233524600to4233524604" fromLane="0" toLane="0"/>
    <connection from="4233524596to4233524600" to="4233524600to9186411596" fromLane="0" toLane="0"/>
    <connection from="4233524596to4233524600" to="4233524600to2102480543" fromLane="0" toLane="0"/>
    <connection from="4233524596to4233524600" to="4233524600to4233524596" fromLane="0" toLane="0"/>

    <connection from="4233524597to2102480543" to="2102480543to4233524600" fromLane="0" toLane="0"/>
    <connection from="4233524597to2102480543" to="2102480543to9186411596" fromLane="0" toLane="0"/>
    <connection from="4233524597to2102480543" to="2102480543to4233654430" fromLane="0" toLane="0"/>
    <connection from="4233524597to2102480543" to="2102480543to4233524597" fromLane="0" toLane="0"/>

    <connection from="4233524597to4233524596" to="4233524596to4233524600" fromLane="0" toLane="0"/>

    <connection from="4233524597to4233654441" to="4233654441to2102480576" fromLane="0" toLane="0"/>
    <connection from="4233524597to4233654441" to="4233654441to4233654463" fromLane="0" toLane="0"/>
    <connection from="4233524597to4233654441" to="4233654441to4233524597" fromLane="0" toLane="0"/>

    <connection from="4233524600to2102480543" to="2102480543to9186411596" fromLane="0" toLane="0"/>
    <connection from="4233524600to2102480543" to="2102480543to4233654430" fromLane="0" toLane="0"/>
    <connection from="4233524600to2102480543" to="2102480543to4233524597" fromLane="0" toLane="0"/>
    <connection from="4233524600to2102480543" to="2102480543to4233524600" fromLane="0" toLane="0"/>

    <connection from="4233524600to4233524596" to="4233524596to4233524597" fromLane="0" toLane="0"/>

    <connection from="4233524600to4233524604" to="4233524604to4233524600" fromLane="0" toLane="0"/>

    <connection from="4233524600to9186411596" to="9186411596to4233524607" fromLane="0" toLane="0"/>
    <connection from="4233524600to9186411596" to="9186411596to2102480543" fromLane="0" toLane="0"/>
    <connection from="4233524600to9186411596" to="9186411596to4233524600" fromLane="0" toLane="0"/>

    <connection from="4233524604to4233524600" to="4233524600to9186411596" fromLane="0" toLane="0"/>
    <connection from="4233524604to4233524600" to="4233524600to2102480543" fromLane="0" toLane="0"/>
    <connection from="4233524604to4233524600" to="4233524600to4233524596" fromLane="0" toLane="0"/>
    <connection from="4233524604to4233524600" to="4233524600to4233524604" fromLane="0" toLane="0"/>

    <connection from="4233524606to4233524608" to="4233524608to4233654507" fromLane="0" toLane="0"/>
    <connection from="4233524606to4233524608" to="4233524608to4233524610" fromLane="0" toLane="0"/>
    <connection from="4233524606to4233524608" to="4233524608to4233524606" fromLane="0" toLane="0"/>

    <connection from="4233524607to4233524610" to="4233524610to4233524608" fromLane="0" toLane="0"/>
    <connection from="4233524607to4233524610" to="4233524610to4233654565" fromLane="0" toLane="0"/>
    <connection from="4233524607to4233524610" to="4233524610to4233654514" fromLane="0" toLane="0"/>
    <connection from="4233524607to4233524610" to="4233524610to4233524607" fromLane="0" toLane="0"/>

    <connection from="4233524607to4233654488" to="4233654488to4233654514" fromLane="0" toLane="0"/>
    <connection from="4233524607to4233654488" to="4233654488to4233654500" fromLane="0" toLane="0"/>
    <connection from="4233524607to4233654488" to="4233654488to4233524607" fromLane="0" toLane="0"/>

    <connection from="4233524607to9186411596" to="9186411596to2102480543" fromLane="0" toLane="0"/>
    <connection from="4233524607to9186411596" to="9186411596to4233524600" fromLane="0" toLane="0"/>
    <connection from="4233524607to9186411596" to="9186411596to4233524607" fromLane="0" toLane="0"/>

    <connection from="4233524608to4233524606" to="4233524606to4233524608" fromLane="0" toLane="0"/>

    <connection from="4233524608to4233524610" to="4233524610to4233654565" fromLane="0" toLane="0"/>