<?xml version="1.0" encoding="UTF-8"?>

<!-- generated on 2022-09-17 10:33:44 by Eclipse SUMO netedit Version 1.14.1
<configuration xmlns:xsi="http://www.w3.org/2001/XMLSchema-instance" xsi:noNamespaceSchemaLocation="http://sumo.dlr.de/xsd/netconvertConfiguration.xsd">

    <input>
        <sumo-net-file value="/home/vishwajeet/ddp_workspace/src/mrpp_iot/graph_sumo/iit_madras.net.xml"/>
    </input>

    <output>
        <output-file value="/home/vishwajeet/ddp_workspace/src/mrpp_iot/graph_sumo/iit_madras.net.xml"/>
    </output>

    <processing>
        <geometry.min-radius.fix.railways value="false"/>
        <geometry.max-grade.fix value="false"/>
        <offset.disable-normalization value="true"/>
        <lefthand value="false"/>
    </processing>

    <junctions>
        <no-turnarounds value="true"/>
        <junctions.corner-detail value="5"/>
        <junctions.limit-turn-speed value="5.5"/>
        <rectangular-lane-cut value="false"/>
    </junctions>

    <pedestrian>
        <walkingareas value="false"/>
    </pedestrian>

</configuration>
-->

<edges version="1.9" xmlns:xsi="http://www.w3.org/2001/XMLSchema-instance" xsi:noNamespaceSchemaLocation="http://sumo.dlr.de/xsd/edges_file.xsd">
    <edge id="1515242053to330654123" from="1515242053" to="330654123" priority="-1" numLanes="1" speed="13.89" shape="1699.97,0.00 1697.96,6.98 1682.91,53.13 1666.54,75.99 1641.26,85.04 1638.23,159.81 1610.30,161.63 1598.32,176.37 1599.02,258.84"/>
    <edge id="2164168433to330654038" from="2164168433" to="330654038" priority="-1" numLanes="1" speed="13.89"/>
    <edge id="2164168455to275676975" from="2164168455" to="275676975" priority="-1" numLanes="1" speed="13.89"/>
    <edge id="2166694724to2166694752" from="2166694724" to="2166694752" priority="-1" numLanes="1" speed="13.89" shape="1300.84,596.94 1302.77,658.29 1262.06,661.91 1253.56,677.96 1227.13,681.05 1204.69,681.86 1186.68,681.04"/>
    <edge id="2166694724to330653353" from="2166694724" to="330653353" priority="-1" numLanes="1" speed="13.89" shape="1300.84,596.94 1295.56,597.43 1177.97,608.41 1170.46,609.79 1151.80,613.20 1128.06,625.50 1120.63,629.35 1092.34,645.32"/>
    <edge id="2166694724to330653384" from="2166694724" to="330653384" priority="-1" numLanes="1" speed="13.89" shape="1300.84,596.94 1346.99,592.31 1380.75,587.58 1523.85,567.08"/>
    <edge id="2166694752to2166694724" from="2166694752" to="2166694724" priority="-1" numLanes="1" speed="13.89" shape="1186.68,681.04 1204.69,681.86 1227.13,681.05 1253.56,677.96 1262.06,661.91 1302.77,658.29 1300.84,596.94"/>
    <edge id="2166703022to275676979" from="2166703022" to="275676979" priority="-1" numLanes="1" speed="13.89" shape="1522.79,521.12 1520.44,419.40 1519.73,391.72 1520.60,352.72 1520.14,259.03"/>
    <edge id="2166703022to330653384" from="2166703022" to="330653384" priority="-1" numLanes="1" speed="13.89"/>
    <edge id="2167078769to2167078770" from="2167078769" to="2167078770" priority="-1" numLanes="1" speed="13.89"/>
    <edge id="2167078770to2167078769" from="2167078770" to="2167078769" priority="-1" numLanes="1" speed="13.89"/>
    <edge id="2167078770to275676975" from="2167078770" to="275676975" priority="-1" numLanes="1" speed="13.89" shape="1317.33,246.17 1281.98,233.30 1252.14,217.68 1211.39,206.68 1174.74,203.33 1144.31,200.43 1118.70,199.74 1110.72,201.51 1100.18,206.31"/>
    <edge id="2167078770to330654139" from="2167078770" to="330654139" priority="-1" numLanes="1" speed="13.89" shape="1317.33,246.17 1344.08,250.86 1363.16,253.37 1400.62,253.76"/>
    <edge id="2167078771to2167078772" from="2167078771" to="2167078772" priority="-1" numLanes="1" speed="13.89"/>
    <edge id="2167078771to275675441" from="2167078771" to="275675441" priority="-1" numLanes="1" speed="13.89" shape="1092.96,269.49 1093.11,317.70 1092.48,331.88 1090.44,350.86"/>
    <edge id="2167078771to275676975" from="2167078771" to="275676975" priority="-1" numLanes="1" speed="13.89" shape="1092.96,269.49 1092.63,252.81 1091.57,239.99 1092.09,228.84 1094.72,217.48 1100.18,206.31"/>
    <edge id="2167078772to2167078771" from="2167078772" to="2167078771" priority="-1" numLanes="1" speed="13.89"/>
    <edge id="268789836to268789959" from="268789836" to="268789959" priority="-1" numLanes="1" speed="13.89" shape="2092.35,2379.36 2080.93,2369.05 2025.90,2319.38"/>
    <edge id="268789875to268789954" from="268789875" to="268789954" priority="-1" numLanes="1" speed="13.89" shape="1353.13,961.43 1362.96,977.67 1403.96,1054.73 1437.04,1082.86 1480.08,1109.61 1487.94,1123.74 1494.44,1137.63 1515.42,1181.62 1539.04,1225.32 1572.48,1271.73 1621.13,1306.19 1633.08,1316.50 1719.83,1387.92 1821.16,1441.57 1833.34,1447.50"/>
    <edge id="268789875to268789971" from="268789875" to="268789971" priority="-1" numLanes="1" speed="13.89" shape="1353.13,961.43 1336.88,936.47 1267.21,879.02 1226.93,845.42 1201.97,827.34 1181.75,816.87 1161.86,805.55"/>
    <edge id="268789875to3371735080" from="268789875" to="3371735080" priority="-1" numLanes="1" speed="13.89" shape="1353.13,961.43 1272.79,987.93 1181.73,1009.17 1178.16,1009.94"/>
    <edge id="268789877to268789882" from="268789877" to="268789882" priority="-1" numLanes="1" speed="13.89" shape="1881.36,2127.79 1785.51,2109.01 1765.53,2095.19 1750.50,2054.57 1731.15,2004.89 1635.94,1772.67 1599.51,1677.62 1600.23,1668.70 1618.86,1638.17 1652.59,1584.93"/>
    <edge id="268789877to268789942" from="268789877" to="268789942" priority="-1" numLanes="1" speed="13.89"/>
    <edge id="268789877to268789961" from="268789877" to="268789961" priority="-1" numLanes="1" speed="13.89" shape="1881.36,2127.79 1867.40,2110.07 1849.62,2066.66 1840.73,2021.75 1836.38,2009.04 1823.61,1971.82 1816.63,1951.02 1812.52,1938.74 1799.81,1897.86 1787.71,1848.90 1780.68,1806.71 1778.28,1793.82 1774.41,1773.00 1769.75,1725.21 1757.93,1660.27 1745.85,1617.83 1742.36,1602.12"/>
    <edge id="268789882to268789877" from="268789882" to="268789877" priority="-1" numLanes="1" speed="13.89" shape="1652.59,1584.93 1618.86,1638.17 1600.23,1668.70 1599.51,1677.62 1635.94,1772.67 1731.15,2004.89 1750.50,2054.57 1765.53,2095.19 1785.51,2109.01 1881.36,2127.79"/>
    <edge id="268789882to268789961" from="268789882" to="268789961" priority="-1" numLanes="1" speed="13.89" shape="1652.59,1584.93 1687.57,1629.30 1742.36,1602.12"/>
    <edge id="268789882to268789999" from="268789882" to="268789999" priority="-1" numLanes="1" speed="13.89" shape="1652.59,1584.93 1621.82,1551.35 1576.16,1497.75 1558.52,1474.38 1530.46,1444.05 1437.86,1376.06 1402.81,1350.76 1372.11,1324.39 1357.28,1311.78 1334.14,1293.82 1310.16,1271.75 1276.40,1246.37 1237.45,1211.04 1158.58,1182.68 1134.48,1160.53 1127.68,1146.67 1115.79,1128.58 1111.27,1100.56 1111.69,1082.76 1111.12,1052.16"/>
    <edge id="268789942to268789877" from="268789942" to="268789877" priority="-1" numLanes="1" speed="13.89"/>
    <edge id="268789942to268789950" from="268789942" to="268789950" priority="-1" numLanes="1" speed="13.89" shape="1926.47,2145.13 1915.12,2097.47 1905.63,2048.82 1897.88,2012.00 1891.97,1990.12 1878.82,1930.89 1867.63,1877.50 1860.05,1841.29 1855.67,1824.07 1850.05,1784.67 1840.89,1741.03 1827.10,1660.37 1781.41,1537.70"/>
    <edge id="268789942to3248845375" from="268789942" to="3248845375" priority="-1" numLanes="1" speed="13.89" shape="1926.47,2145.13 1992.05,2170.34 2011.22,2180.08"/>
    <edge id="268789950to268789942" from="268789950" to="268789942" priority="-1" numLanes="1" speed="13.89" shape="1781.41,1537.70 1827.10,1660.37 1840.89,1741.03 1850.05,1784.67 1855.67,1824.07 1860.05,1841.29 1867.63,1877.50 1878.82,1930.89 1891.97,1990.12 1897.88,2012.00 1905.63,2048.82 1915.12,2097.47 1926.47,2145.13"/>
    <edge id="268789950to268789954" from="268789950" to="268789954" priority="-1" numLanes="1" speed="13.89" shape="1781.41,1537.70 1796.61,1507.80 1819.84,1468.05 1833.34,1447.50"/>
    <edge id="268789950to268789961" from="268789950" to="268789961" priority="-1" numLanes="1" speed="13.89"/>
    <edge id="268789954to268789875" from="268789954" to="268789875" priority="-1" numLanes="1" speed="13.89" shape="1833.34,1447.50 1821.16,1441.57 1719.83,1387.92 1633.08,1316.50 1621.13,1306.19 1572.48,1271.73 1539.04,1225.32 1515.42,1181.62 1494.44,1137.63 1487.94,1123.74 1480.08,1109.61 1437.04,1082.86 1403.96,1054.73 1362.96,977.67 1353.13,961.43"/>
    <edge id="268789954to268789950" from="268789954" to="268789950" priority="-1" numLanes="1" speed="13.89" shape="1833.34,1447.50 1819.84,1468.05 1796.61,1507.80 1781.41,1537.70"/>
    <edge id="268789954to3248845375" from="268789954" to="3248845375" priority="-1" numLanes="1" speed="13.89" shape="1833.34,1447.50 1843.80,1458.60 1851.86,1469.56 1867.76,1514.04 1874.03,1527.03 1881.32,1552.01 1897.51,1585.82 1906.03,1609.75 1932.79,1759.29 1938.71,1790.62 1940.12,1802.30 1948.09,1843.37 1950.57,1856.18 1966.41,1920.43 1986.55,1994.55 1991.08,2007.50 1999.97,2053.05 1999.60,2084.06 1996.68,2106.86 2002.55,2143.73 2011.22,2180.08"/>
    <edge id="268789959to268789836" from="268789959" to="268789836" priority="-1" numLanes="1" speed="13.89" shape="2025.90,2319.38 2080.93,2369.05 2092.35,2379.36"/>
    <edge id="268789959to3248845375" from="268789959" to="3248845375" priority="-1" numLanes="1" speed="13.89" shape="2025.90,2319.38 2027.01,2214.68 2020.42,2195.18 2011.22,2180.08"/>
    <edge id="268789961to268789877" from="268789961" to="268789877" priority="-1" numLanes="1" speed="13.89" shape="1742.36,1602.12 1745.85,1617.83 1757.93,1660.27 1769.75,1725.21 1774.41,1773.00 1778.28,1793.82 1780.68,1806.71 1787.71,1848.90 1799.81,1897.86 1812.52,1938.74 1816.63,1951.02 1823.61,1971.82 1836.38,2009.04 1840.73,2021.75 1849.62,2066.66 1867.40,2110.07 1881.36,2127.79"/>
    <edge id="268789961to268789882" from="268789961" to="268789882" priority="-1" numLanes="1" speed="13.89" shape="1742.36,1602.12 1687.57,1629.30 1652.59,1584.93"/>
    <edge id="268789961to268789950" from="268789961" to="268789950" priority="-1" numLanes="1" speed="13.89"/>
    <edge id="268789961to3371735080" from="268789961" to="3371735080" priority="-1" numLanes="1" speed="13.89" shape="1742.36,1602.12 1727.43,1556.66 1717.92,1529.20 1709.34,1515.13 1694.55,1493.34 1671.21,1469.98 1642.53,1445.71 1617.87,1436.53 1574.20,1407.18 1511.53,1368.95 1474.93,1351.60 1415.18,1318.32 1373.73,1287.76 1348.98,1260.72 1319.00,1221.14 1283.46,1163.25 1267.07,1127.02 1251.35,1096.71 1234.47,1076.59 1203.72,1042.80 1178.16,1009.94"/>
    <edge id="268789969to268789971" from="268789969" to="268789971" priority="-1" numLanes="1" speed="13.89" shape="1139.24,812.65 1154.98,814.24 1161.86,805.55"/>
    <edge id="268789969to268789976" from="268789969" to="268789976" priority="-1" numLanes="1" speed="13.89" shape="1139.24,812.65 1122.51,799.59 1118.11,790.79"/>
    <edge id="268789969to3371735080" from="268789969" to="3371735080" priority="-1" numLanes="1" speed="13.89" shape="1139.24,812.65 1137.36,825.90 1139.97,855.26 1148.32,918.33 1156.97,968.29 1178.16,1009.94"/>
    <edge id="268789971to268789875" from="268789971" to="268789875" priority="-1" numLanes="1" speed="13.89" shape="1161.86,805.55 1181.75,816.87 1201.97,827.34 1226.93,845.42 1267.21,879.02 1336.88,936.47 1353.13,961.43"/>
    <edge id="268789971to268789969" from="268789971" to="268789969" priority="-1" numLanes="1" speed="13.89" shape="1161.86,805.55 1154.98,814.24 1139.24,812.65"/>
    <edge id="268789971to268789973" from="268789971" to="268789973" priority="-1" numLanes="1" speed="13.89" shape="1161.86,805.55 1152.46,796.04 1136.61,782.51"/>
    <edge id="268789973to268789971" from="268789973" to="268789971" priority="-1" numLanes="1" speed="13.89" shape="1136.61,782.51 1152.46,796.04 1161.86,805.55"/>
    <edge id="268789973to268789976" from="268789973" to="268789976" priority="-1" numLanes="1" speed="13.89" shape="1136.61,782.51 1125.23,783.98 1118.11,790.79"/>
    <edge id="268789973to330653353" from="268789973" to="330653353" priority="-1" numLanes="1" speed="13.89" shape="1136.61,782.51 1122.61,737.48 1105.86,682.81 1092.34,645.32"/>
    <edge id="268789976to268789969" from="268789976" to="268789969" priority="-1" numLanes="1" speed="13.89" shape="1118.11,790.79 1122.51,799.59 1139.24,812.65"/>
    <edge id="268789976to268789973" from="268789976" to="268789973" priority="-1" numLanes="1" speed="13.89" shape="1118.11,790.79 1125.23,783.98 1136.61,782.51"/>
    <edge id="268789976to268790010" from="268789976" to="268790010" priority="-1" numLanes="1" speed="13.89" shape="1118.11,790.79 1100.59,780.85 1085.39,775.60 1040.27,761.00 1005.03,748.58 986.33,743.29 960.18,740.30 943.93,738.03"/>
    <edge id="268789999to268789882" from="268789999" to="268789882" priority="-1" numLanes="1" speed="13.89" shape="1111.12,1052.16 1111.69,1082.76 1111.27,1100.56 1115.79,1128.58 1127.68,1146.67 1134.48,1160.53 1158.58,1182.68 1237.45,1211.04 1276.40,1246.37 1310.16,1271.75 1334.14,1293.82 1357.28,1311.78 1372.11,1324.39 1402.81,1350.76 1437.86,1376.06 1530.46,1444.05 1558.52,1474.38 1576.16,1497.75 1621.82,1551.35 1652.59,1584.93"/>
    <edge id="268789999to268790000" from="268789999" to="268790000" priority="-1" numLanes="1" speed="13.89"/>
    <edge id="268789999to330612289" from="268789999" to="330612289" priority="-1" numLanes="1" speed="13.89"/>
    <edge id="268790000to268789999" from="268790000" to="268789999" priority="-1" numLanes="1" speed="13.89"/>
    <edge id="268790000to330612289" from="268790000" to="330612289" priority="-1" numLanes="1" speed="13.89"/>
    <edge id="268790000to3371735080" from="268790000" to="3371735080" priority="-1" numLanes="1" speed="13.89"/>
    <edge id="268790010to268789976" from="268790010" to="268789976" priority="-1" numLanes="1" speed="13.89" shape="943.93,738.03 960.18,740.30 986.33,743.29 1005.03,748.58 1040.27,761.00 1085.39,775.60 1100.59,780.85 1118.11,790.79"/>
    <edge id="268790010to330612289" from="268790010" to="330612289" priority="-1" numLanes="1" speed="13.89" shape="943.93,738.03 935.05,767.45 910.90,847.44 905.31,865.95 984.38,1039.22 1001.41,1047.01 1094.17,1027.73"/>
    <edge id="268790010to330648048" from="268790010" to="330648048" priority="-1" numLanes="1" speed="13.89" shape="943.93,738.03 868.98,729.87 758.93,721.22 756.27,721.27 750.55,721.35 732.33,721.63 696.49,712.39 665.23,705.96 629.59,694.04 594.81,685.61 529.44,664.11 476.59,654.99"/>
    <edge id="275675441to2167078771" from="275675441" to="2167078771" priority="-1" numLanes="1" speed="13.89" shape="1090.44,350.86 1092.48,331.88 1093.11,317.70 1092.96,269.49"/>
    <edge id="275675441to330648048" from="275675441" to="330648048" priority="-1" numLanes="1" speed="13.89" shape="1090.44,350.86 1063.93,349.10 1038.43,350.06 985.81,357.36 968.30,360.71 951.45,364.77 926.78,373.18 882.23,392.12 826.40,415.34 745.32,442.15 660.13,484.67 563.76,516.51 545.16,525.61 527.12,542.36 514.54,571.38 503.40,608.28 489.11,632.96 476.59,654.99"/>
    <edge id="275675441to330653353" from="275675441" to="330653353" priority="-1" numLanes="1" speed="13.89" shape="1090.44,350.86 1060.13,429.57 1054.10,443.62 1052.88,451.01 1052.00,474.57 1053.25,514.99 1059.38,551.67 1065.25,570.01 1070.97,592.08 1087.45,638.15 1092.34,645.32"/>
    <edge id="275676975to2164168455" from="275676975" to="2164168455" priority="-1" numLanes="1" speed="13.89"/>
    <edge id="275676975to2167078770" from="275676975" to="2167078770" priority="-1" numLanes="1" speed="13.89" shape="1100.18,206.31 1110.72,201.51 1118.70,199.74 1144.31,200.43 1174.74,203.33 1211.39,206.68 1252.14,217.68 1281.98,233.30 1317.33,246.17"/>
    <edge id="275676975to2167078771" from="275676975" to="2167078771" priority="-1" numLanes="1" speed="13.89" shape="1100.18,206.31 1094.72,217.48 1092.09,228.84 1091.57,239.99 1092.63,252.81 1092.96,269.49"/>
    <edge id="275676979to2166703022" from="275676979" to="2166703022" priority="-1" numLanes="1" speed="13.89" shape="1520.14,259.03 1520.60,352.72 1519.73,391.72 1520.44,419.40 1522.79,521.12"/>
    <edge id="275676979to330654123" from="275676979" to="330654123" priority="-1" numLanes="1" speed="13.89" shape="1520.14,259.03 1539.16,258.99 1599.02,258.84"/>
    <edge id="275676979to330654139" from="275676979" to="330654139" priority="-1" numLanes="1" speed="13.89" shape="1520.14,259.03 1507.00,258.28 1473.60,257.16 1414.46,255.19 1400.62,253.76"/>
    <edge id="275676982to330654123" from="275676982" to="330654123" priority="-1" numLanes="1" speed="13.89" shape="1678.00,261.03 1633.84,259.81 1599.02,258.84"/>
    <edge id="3098974997to330654038" from="3098974997" to="330654038" priority="-1" numLanes="1" speed="13.89" shape="958.55,90.21 964.34,85.85 977.18,71.51 1007.15,62.11 1027.25,62.81 1042.38,63.34"/>
    <edge id="3248845375to268789942" from="3248845375" to="268789942" priority="-1" numLanes="1" speed="13.89" shape="2011.22,2180.08 1992.05,2170.34 1926.47,2145.13"/>
    <edge id="3248845375to268789954" from="3248845375" to="268789954" priority="-1" numLanes="1" speed="13.89" shape="2011.22,2180.08 2002.55,2143.73 1996.68,2106.86 1999.60,2084.06 1999.97,2053.05 1991.08,2007.50 1986.55,1994.55 1966.41,1920.43 1950.57,1856.18 1948.09,1843.37 1940.12,1802.30 1938.71,1790.62 1932.79,1759.29 1906.03,1609.75 1897.51,1585.82 1881.32,1552.01 1874.03,1527.03 1867.76,1514.04 1851.86,1469.56 1843.80,1458.60 1833.34,1447.50"/>
    <edge id="3248845375to268789959" from="3248845375" to="268789959" priority="-1" numLanes="1" speed="13.89" shape="2011.22,2180.08 2020.42,2195.18 2027.01,2214.68 2025.90,2319.38"/>
    <edge id="330612289to268789999" from="330612289" to="268789999" priority="-1" numLanes="1" speed="13.89"/>
    <edge id="330612289to268790000" from="330612289" to="268790000" priority="-1" numLanes="1" speed="13.89"/>
    <edge id="330612289to268790010" from="330612289" to="268790010" priority="-1" numLanes="1" speed="13.89" shape="1094.17,1027.73 1001.41,1047.01 984.38,1039.22 905.31,865.95 910.90,847.44 935.05,767.45 943.93,738.03"/>
    <edge id="330648048to268790010" from="330648048" to="268790010" priority="-1" numLanes="1" speed="13.89" shape="476.59,654.99 529.44,664.11 594.81,685.61 629.59,694.04 665.23,705.96 696.49,712.39 732.33,721.63 750.55,721.35 756.27,721.27 758.93,721.22 868.98,729.87 943.93,738.03"/>
    <edge id="330648048to275675441" from="330648048" to="275675441" priority="-1" numLanes="1" speed="13.89" shape="476.59,654.99 489.11,632.96 503.40,608.28 514.54,571.38 527.12,542.36 545.16,525.61 563.76,516.51 660.13,484.67 745.32,442.15 826.40,415.34 882.23,392.12 926.78,373.18 951.45,364.77 968.30,360.71 985.81,357.36 1038.43,350.06 1063.93,349.10 1090.44,350.86"/>
    <edge id="330648048to330780901" from="330648048" to="330780901" priority="-1" numLanes="1" speed="13.89" shape="476.59,654.99 445.88,649.70 435.48,647.65 367.87,638.80 346.79,638.45 322.88,644.96 299.76,648.39 289.60,649.20 275.96,646.38 253.81,635.57 230.88,620.35 213.31,608.63 194.71,599.52 166.93,593.16 146.65,588.40 117.10,583.53 60.70,578.11 46.72,573.16 32.24,563.04 13.10,538.33 8.96,492.21 8.34,485.31 5.95,458.69 4.38,448.00 2.22,409.39 1.23,405.09 1.39,402.64 0.68,394.67 0.00,367.82"/>
    <edge id="330653353to2166694724" from="330653353" to="2166694724" priority="-1" numLanes="1" speed="13.89" shape="1092.34,645.32 1120.63,629.35 1128.06,625.50 1151.80,613.20 1170.46,609.79 1177.97,608.41 1295.56,597.43 1300.84,596.94"/>
    <edge id="330653353to268789973" from="330653353" to="268789973" priority="-1" numLanes="1" speed="13.89" shape="1092.34,645.32 1105.86,682.81 1122.61,737.48 1136.61,782.51"/>
    <edge id="330653353to275675441" from="330653353" to="275675441" priority="-1" numLanes="1" speed="13.89" shape="1092.34,645.32 1087.45,638.15 1070.97,592.08 1065.25,570.01 1059.38,551.67 1053.25,514.99 1052.00,474.57 1052.88,451.01 1054.10,443.62 1060.13,429.57 1090.44,350.86"/>
    <edge id="330653384to2166694724" from="330653384" to="2166694724" priority="-1" numLanes="1" speed="13.89" shape="1523.85,567.08 1380.75,587.58 1346.99,592.31 1300.84,596.94"/>
    <edge id="330653384to2166703022" from="330653384" to="2166703022" priority="-1" numLanes="1" speed="13.89"/>
    <edge id="330654038to2164168433" from="330654038" to="2164168433" priority="-1" numLanes="1" speed="13.89"/>
    <edge id="330654038to3098974997" from="330654038" to="3098974997" priority="-1" numLanes="1" speed="13.89" shape="1042.38,63.34 1027.25,62.81 1007.15,62.11 977.18,71.51 964.34,85.85 958.55,90.21"/>
    <edge id="330654038to330654081" from="330654038" to="330654081" priority="-1" numLanes="1" speed="13.89" shape="1042.38,63.34 1193.17,63.48 1218.88,65.13 1254.23,91.59 1290.66,93.89 1402.53,100.96"/>
    <edge id="330654081to330654038" from="330654081" to="330654038" priority="-1" numLanes="1" speed="13.89" shape="1402.53,100.96 1290.66,93.89 1254.23,91.59 1218.88,65.13 1193.17,63.48 1042.38,63.34"/>
    <edge id="330654081to330654083" from="330654081" to="330654083" priority="-1" numLanes="1" speed="13.89"/>
    <edge id="330654081to330654139" from="330654081" to="330654139" priority="-1" numLanes="1" speed="13.89"/>
    <edge id="330654083to330654081" from="330654083" to="330654081" priority="-1" numLanes="1" speed="13.89"/>
    <edge id="330654123to1515242053" from="330654123" to="1515242053" priority="-1" numLanes="1" speed="13.89" shape="1599.02,258.84 1598.32,176.37 1610.30,161.63 1638.23,159.81 1641.26,85.04 1666.54,75.99 1682.91,53.13 1697.96,6.98 1699.97,0.00"/>
    <edge id="330654123to275676979" from="330654123" to="275676979" priority="-1" numLanes="1" speed="13.89" shape="1599.02,258.84 1539.16,258.99 1520.14,259.03"/>
    <edge id="330654123to275676982" from="330654123" to="275676982" priority="-1" numLanes="1" speed="13.89" shape="1599.02,258.84 1633.84,259.81 1678.00,261.03"/>
    <edge id="330654139to2167078770" from="330654139" to="2167078770" priority="-1" numLanes="1" speed="13.89" shape="1400.62,253.76 1363.16,253.37 1344.08,250.86 1317.33,246.17"/>
    <edge id="330654139to275676979" from="330654139" to="275676979" priority="-1" numLanes="1" speed="13.89" shape="1400.62,253.76 1414.46,255.19 1473.60,257.16 1507.00,258.28 1520.14,259.03"/>
    <edge id="330654139to330654081" from="330654139" to="330654081" priority="-1" numLanes="1" speed="13.89"/>
    <edge id="330780901to330648048" from="330780901" to="330648048" priority="-1" numLanes="1" speed="13.89" shape="0.00,367.82 0.68,394.67 1.39,402.64 1.23,405.09 2.22,409.39 4.38,448.00 5.95,458.69 8.34,485.31 8.96,492.21 13.10,538.33 32.24,563.04 46.72,573.16 60.70,578.11 117.10,583.53 146.65,588.40 166.93,593.16 194.71,599.52 213.31,608.63 230.88,620.35 253.81,635.57 275.96,646.38 289.60,649.20 299.76,648.39 322.88,644.96 346.79,638.45 367.87,638.80 435.48,647.65 445.88,649.70 476.59,654.99"/>
    <edge id="3371735080to268789875" from="3371735080" to="268789875" priority="-1" numLanes="1" speed="13.89" shape="1178.16,1009.94 1181.73,1009.17 1272.79,987.93 1353.13,961.43"/>
    <edge id="3371735080to268789961" from="3371735080" to="268789961" priority="-1" numLanes="1" speed="13.89" shape="1178.16,1009.94 1203.72,1042.80 1234.47,1076.59 1251.35,1096.71 1267.07,1127.02 1283.46,1163.25 1319.00,1221.14 1348.98,1260.72 1373.73,1287.76 1415.18,1318.32 1474.93,1351.60 1511.53,1368.95 1574.20,1407.18 1617.87,1436.53 1642.53,1445.71 1671.21,1469.98 1694.55,1493.34 1709.34,1515.13 1717.92,1529.20 1727.43,1556.66 1742.36,1602.12"/>
    <edge id="3371735080to268789969" from="3371735080" to="268789969" priority="-1" numLanes="1" speed="13.89" shape="1178.16,1009.94 1156.97,968.29 1148.32,918.33 1139.97,855.26 1137.36,825.90 1139.24,812.65"/>
    <edge id="3371735080to268790000" from="3371735080" to="268790000" priority="-1" numLanes="1" speed="13.89"/>
</edges>
