<?xml version="1.0" encoding="UTF-8"?>

<!-- generated on 2022-09-13 16:36:39 by Eclipse SUMO netconvert Version 1.14.1
<configuration xmlns:xsi="http://www.w3.org/2001/XMLSchema-instance" xsi:noNamespaceSchemaLocation="http://sumo.dlr.de/xsd/netconvertConfiguration.xsd">

    <input>
        <node-files value="iit_delhi.nod.xml"/>
        <edge-files value="iit_delhi.edg.xml"/>
    </input>

    <output>
        <output-file value="iit_delhi.net.xml"/>
    </output>

</configuration>
-->

<net version="1.9" junctionCornerDetail="5" limitTurnSpeed="5.50" xmlns:xsi="http://www.w3.org/2001/XMLSchema-instance" xsi:noNamespaceSchemaLocation="http://sumo.dlr.de/xsd/net_file.xsd">

    <location netOffset="986.04,541.94" convBoundary="0.00,0.00,1971.63,1091.35" origBoundary="-986.04,-541.94,985.59,549.40" projParameter="!"/>

    <edge id=":2102480543_0" function="internal">
        <lane id=":2102480543_0_0" index="0" speed="6.54" length="9.10" shape="1804.32,100.20 1803.01,98.05 1801.35,96.83 1799.32,96.54 1796.92,97.17"/>
    </edge>
    <edge id=":2102480543_1" function="internal">
        <lane id=":2102480543_1_0" index="0" speed="13.89" length="14.48" shape="1804.32,100.20 1798.70,86.85"/>
    </edge>
    <edge id=":2102480543_2" function="internal">
        <lane id=":2102480543_2_0" index="0" speed="7.96" length="4.15" shape="1804.32,100.20 1803.29,96.41 1803.32,96.19"/>
    </edge>
    <edge id=":2102480543_3" function="internal">
        <lane id=":2102480543_3_0" index="0" speed="3.65" length="1.44" shape="1804.32,100.20 1804.58,98.78"/>
    </edge>
    <edge id=":2102480543_16" function="internal">
        <lane id=":2102480543_16_0" index="0" speed="7.96" length="10.14" shape="1803.32,96.19 1803.74,93.22 1805.67,90.65 1809.07,88.68"/>
    </edge>
    <edge id=":2102480543_17" function="internal">
        <lane id=":2102480543_17_0" index="0" speed="3.65" length="3.23" shape="1804.58,98.78 1805.16,98.10 1806.05,98.15 1807.26,98.93"/>
    </edge>
    <edge id=":2102480543_4" function="internal">
        <lane id=":2102480543_4_0" index="0" speed="6.45" length="9.03" shape="1810.26,91.65 1808.11,92.89 1806.89,94.52 1806.61,96.54 1807.26,98.93"/>
    </edge>
    <edge id=":2102480543_5" function="internal">
        <lane id=":2102480543_5_0" index="0" speed="13.89" length="14.43" shape="1810.26,91.65 1796.92,97.17"/>
    </edge>
    <edge id=":2102480543_6" function="internal">
        <lane id=":2102480543_6_0" index="0" speed="8.04" length="14.25" shape="1810.26,91.65 1806.45,92.59 1803.26,92.10 1800.67,90.19 1798.70,86.85"/>
    </edge>
    <edge id=":2102480543_7" function="internal">
        <lane id=":2102480543_7_0" index="0" speed="3.65" length="4.67" shape="1810.26,91.65 1808.85,91.36 1808.18,90.76 1808.25,89.87 1809.07,88.68"/>
    </edge>
    <edge id=":2102480543_8" function="internal">
        <lane id=":2102480543_8_0" index="0" speed="6.55" length="9.12" shape="1801.66,85.63 1802.92,87.76 1804.58,88.98 1806.62,89.29 1809.07,88.68"/>
    </edge>
    <edge id=":2102480543_9" function="internal">
        <lane id=":2102480543_9_0" index="0" speed="13.89" length="14.43" shape="1801.66,85.63 1807.26,98.93"/>
    </edge>
    <edge id=":2102480543_10" function="internal">
        <lane id=":2102480543_10_0" index="0" speed="8.04" length="4.00" shape="1801.66,85.63 1802.61,89.39 1802.60,89.51"/>
    </edge>
    <edge id=":2102480543_11" function="internal">
        <lane id=":2102480543_11_0" index="0" speed="3.65" length="1.44" shape="1801.66,85.63 1801.38,87.05"/>
    </edge>
    <edge id=":2102480543_18" function="internal">
        <lane id=":2102480543_18_0" index="0" speed="8.04" length="10.19" shape="1802.60,89.51 1802.14,92.57 1800.24,95.16 1796.92,97.17"/>
    </edge>
    <edge id=":2102480543_19" function="internal">
        <lane id=":2102480543_19_0" index="0" speed="3.65" length="3.23" shape="1801.38,87.05 1800.79,87.72 1799.90,87.66 1798.70,86.85"/>
    </edge>
    <edge id=":2102480543_12" function="internal">
        <lane id=":2102480543_12_0" index="0" speed="6.55" length="9.07" shape="1795.67,94.23 1797.79,92.94 1799.01,91.28 1799.31,89.25 1798.70,86.85"/>
    </edge>
    <edge id=":2102480543_13" function="internal">
        <lane id=":2102480543_13_0" index="0" speed="13.89" length="14.50" shape="1795.67,94.23 1809.07,88.68"/>
    </edge>
    <edge id=":2102480543_14" function="internal">
        <lane id=":2102480543_14_0" index="0" speed="8.03" length="14.25" shape="1795.67,94.23 1799.42,93.23 1802.61,93.68 1805.22,95.58 1807.26,98.93"/>
    </edge>
    <edge id=":2102480543_15" function="internal">
        <lane id=":2102480543_15_0" index="0" speed="3.65" length="4.67" shape="1795.67,94.23 1797.09,94.49 1797.77,95.07 1797.71,95.97 1796.92,97.17"/>
    </edge>
    <edge id=":2102480576_0" function="internal">
        <lane id=":2102480576_0_0" index="0" speed="6.57" length="9.17" shape="1526.38,212.43 1525.26,210.23 1523.67,208.91 1521.63,208.49 1519.12,208.94"/>
    </edge>
    <edge id=":2102480576_1" function="internal">
        <lane id=":2102480576_1_0" index="0" speed="13.89" length="14.46" shape="1526.38,212.43 1521.50,198.83"/>
    </edge>
    <edge id=":2102480576_2" function="internal">
        <lane id=":2102480576_2_0" index="0" speed="8.21" length="3.87" shape="1526.38,212.43 1525.67,208.63"/>
    </edge>
    <edge id=":2102480576_3" function="internal">
        <lane id=":2102480576_3_0" index="0" speed="3.65" length="1.44" shape="1526.38,212.43 1526.76,211.04"/>
    </edge>
    <edge id=":2102480576_16" function="internal">
        <lane id=":2102480576_16_0" index="0" speed="8.21" length="10.45" shape="1525.67,208.63 1526.33,205.44 1528.35,202.86 1531.74,200.90"/>
    </edge>
    <edge id=":2102480576_17" function="internal">
        <lane id=":2102480576_17_0" index="0" speed="3.65" length="3.23" shape="1526.76,211.04 1527.39,210.40 1528.27,210.53 1529.42,211.41"/>
    </edge>
    <edge id=":2102480576_4" function="internal">
        <lane id=":2102480576_4_0" index="0" speed="6.76" length="9.38" shape="1532.94,203.86 1530.72,205.15 1529.39,206.84 1528.95,208.92 1529.42,211.41"/>
    </edge>
    <edge id=":2102480576_5" function="internal">
        <lane id=":2102480576_5_0" index="0" speed="13.89" length="14.73" shape="1532.94,203.86 1519.12,208.94"/>
    </edge>
    <edge id=":2102480576_6" function="internal">
        <lane id=":2102480576_6_0" index="0" speed="7.97" length="14.34" shape="1532.94,203.86 1529.13,204.81 1525.95,204.29 1523.41,202.29 1521.50,198.83"/>
    </edge>
    <edge id=":2102480576_7" function="internal">
        <lane id=":2102480576_7_0" index="0" speed="3.65" length="4.67" shape="1532.94,203.86 1531.53,203.57 1530.86,202.98 1530.93,202.09 1531.74,200.90"/>
    </edge>
    <edge id=":2102480576_8" function="internal">
        <lane id=":2102480576_8_0" index="0" speed="6.47" length="9.09" shape="1524.49,197.69 1525.70,199.89 1527.31,201.16 1529.32,201.49 1531.74,200.90"/>
    </edge>
    <edge id=":2102480576_9" function="internal">
        <lane id=":2102480576_9_0" index="0" speed="13.89" length="14.57" shape="1524.49,197.69 1529.42,211.41"/>
    </edge>
    <edge id=":2102480576_10" function="internal">
        <lane id=":2102480576_10_0" index="0" speed="7.92" length="4.24" shape="1524.49,197.69 1525.35,201.56 1525.30,201.83"/>
    </edge>
    <edge id=":2102480576_11" function="internal">
        <lane id=":2102480576_11_0" index="0" speed="3.65" length="1.44" shape="1524.49,197.69 1524.17,199.10"/>
    </edge>
    <edge id=":2102480576_18" function="internal">
        <lane id=":2102480576_18_0" index="0" speed="7.92" length="10.13" shape="1525.30,201.83 1524.75,204.72 1522.67,207.18 1519.12,208.94"/>
    </edge>
    <edge id=":2102480576_19" function="internal">
        <lane id=":2102480576_19_0" index="0" speed="3.65" length="3.23" shape="1524.17,199.10 1523.56,199.75 1522.67,199.66 1521.50,198.83"/>
    </edge>
    <edge id=":2102480576_12" function="internal">
        <lane id=":2102480576_12_0" index="0" speed="6.41" length="9.04" shape="1518.12,205.90 1520.35,204.80 1521.66,203.25 1522.04,201.26 1521.50,198.83"/>
    </edge>
    <edge id=":2102480576_13" function="internal">
        <lane id=":2102480576_13_0" index="0" speed="13.89" length="14.51" shape="1518.12,205.90 1531.74,200.90"/>
    </edge>
    <edge id=":2102480576_14" function="internal">
        <lane id=":2102480576_14_0" index="0" speed="8.06" length="14.30" shape="1518.12,205.90 1522.01,205.20 1525.19,205.88 1527.66,207.95 1529.42,211.41"/>
    </edge>
    <edge id=":2102480576_15" function="internal">
        <lane id=":2102480576_15_0" index="0" speed="3.65" length="4.67" shape="1518.12,205.90 1519.51,206.29 1520.14,206.92 1520.01,207.81 1519.12,208.94"/>
    </edge>
    <edge id=":2102480797_0" function="internal">
        <lane id=":2102480797_0_0" index="0" speed="13.89" length="13.27" shape="1660.21,309.48 1658.78,306.27 1657.34,303.42 1655.53,300.87 1653.00,298.55"/>
    </edge>
    <edge id=":2102480797_1" function="internal">
        <lane id=":2102480797_1_0" index="0" speed="7.34" length="4.99" shape="1660.21,309.48 1658.71,304.72"/>
    </edge>
    <edge id=":2102480797_2" function="internal">
        <lane id=":2102480797_2_0" index="0" speed="3.65" length="1.44" shape="1660.21,309.48 1660.45,308.06"/>
    </edge>
    <edge id=":2102480797_9" function="internal">
        <lane id=":2102480797_9_0" index="0" speed="7.34" length="10.95" shape="1658.71,304.72 1659.19,301.38 1661.63,299.45 1666.06,298.93"/>
    </edge>
    <edge id=":2102480797_10" function="internal">
        <lane id=":2102480797_10_0" index="0" speed="3.65" length="3.23" shape="1660.45,308.06 1661.01,307.36 1661.90,307.40 1663.13,308.16"/>
    </edge>
    <edge id=":2102480797_3" function="internal">
        <lane id=":2102480797_3_0" index="0" speed="5.74" length="9.19" shape="1666.62,302.16 1664.03,302.45 1662.58,303.54 1662.28,305.45 1663.13,308.16"/>
    </edge>
    <edge id=":2102480797_4" function="internal">
        <lane id=":2102480797_4_0" index="0" speed="13.89" length="14.31" shape="1666.62,302.16 1662.95,301.93 1659.45,301.40 1656.12,300.34 1653.00,298.55"/>
    </edge>
    <edge id=":2102480797_5" function="internal">
        <lane id=":2102480797_5_0" index="0" speed="3.68" length="4.78" shape="1666.62,302.16 1665.27,301.56 1664.73,300.83 1664.99,299.95 1666.06,298.93"/>
    </edge>
    <edge id=":2102480797_6" function="internal">
        <lane id=":2102480797_6_0" index="0" speed="13.73" length="11.25" shape="1655.38,296.34 1658.05,297.97 1660.36,298.68 1662.85,298.87 1666.06,298.93"/>
    </edge>
    <edge id=":2102480797_7" function="internal">
        <lane id=":2102480797_7_0" index="0" speed="13.89" length="14.30" shape="1655.38,296.34 1658.00,298.79 1659.99,301.65 1661.61,304.81 1663.13,308.16"/>
    </edge>
    <edge id=":2102480797_8" function="internal">
        <lane id=":2102480797_8_0" index="0" speed="3.67" length="1.47" shape="1655.38,296.34 1655.62,297.79"/>
    </edge>
    <edge id=":2102480797_11" function="internal">
        <lane id=":2102480797_11_0" index="0" speed="3.67" length="3.29" shape="1655.62,297.79 1655.30,298.64 1654.43,298.89 1653.00,298.55"/>
    </edge>
    <edge id=":2102480799_0" function="internal">
        <lane id=":2102480799_0_0" index="0" speed="6.46" length="9.03" shape="1963.43,356.42 1962.22,354.25 1960.61,353.01 1958.61,352.68 1956.20,353.28"/>
    </edge>
    <edge id=":2102480799_1" function="internal">
        <lane id=":2102480799_1_0" index="0" speed="13.89" length="14.43" shape="1963.43,356.42 1958.14,342.99"/>
    </edge>
    <edge id=":2102480799_2" function="internal">
        <lane id=":2102480799_2_0" index="0" speed="3.65" length="1.44" shape="1963.43,356.42 1963.75,355.02"/>
    </edge>
    <edge id=":2102480799_9" function="internal">
        <lane id=":2102480799_9_0" index="0" speed="3.65" length="3.23" shape="1963.75,355.02 1964.35,354.36 1965.24,354.44 1966.42,355.28"/>
    </edge>
    <edge id=":2102480799_3" function="internal">
        <lane id=":2102480799_3_0" index="0" speed="13.89" length="14.49" shape="1961.11,341.79 1966.42,355.28"/>
    </edge>
    <edge id=":2102480799_4" function="internal">
        <lane id=":2102480799_4_0" index="0" speed="8.02" length="4.13" shape="1961.11,341.79 1962.04,345.57 1962.00,345.81"/>
    </edge>
    <edge id=":2102480799_5" function="internal">
        <lane id=":2102480799_5_0" index="0" speed="3.65" length="1.44" shape="1961.11,341.79 1960.82,343.21"/>
    </edge>
    <edge id=":2102480799_10" function="internal">
        <lane id=":2102480799_10_0" index="0" speed="8.02" length="10.11" shape="1962.00,345.81 1961.53,348.74 1959.58,351.31 1956.20,353.28"/>
    </edge>
    <edge id=":2102480799_11" function="internal">
        <lane id=":2102480799_11_0" index="0" speed="3.65" length="3.23" shape="1960.82,343.21 1960.23,343.88 1959.33,343.81 1958.14,342.99"/>
    </edge>
    <edge id=":2102480799_6" function="internal">
        <lane id=":2102480799_6_0" index="0" speed="6.53" length="9.09" shape="1954.99,350.31 1957.16,349.06 1958.41,347.42 1958.73,345.40 1958.14,342.99"/>
    </edge>
    <edge id=":2102480799_7" function="internal">
        <lane id=":2102480799_7_0" index="0" speed="7.97" length="14.27" shape="1954.99,350.31 1958.80,349.37 1961.97,349.88 1964.51,351.85 1966.42,355.28"/>
    </edge>
    <edge id=":2102480799_8" function="internal">
        <lane id=":2102480799_8_0" index="0" speed="3.65" length="4.67" shape="1954.99,350.31 1956.41,350.60 1957.08,351.20 1957.01,352.09 1956.20,353.28"/>
    </edge>
    <edge id=":2102480800_0" function="internal">
        <lane id=":2102480800_0_0" index="0" speed="6.81" length="9.43" shape="1914.47,376.55 1913.03,374.35 1911.27,373.06 1909.17,372.70 1906.75,373.25"/>
    </edge>
    <edge id=":2102480800_1" function="internal">
        <lane id=":2102480800_1_0" index="0" speed="13.89" length="14.96" shape="1914.47,376.55 1912.91,373.15 1911.45,369.71 1910.09,366.23 1908.84,362.70"/>
    </edge>
    <edge id=":2102480800_2" function="internal">
        <lane id=":2102480800_2_0" index="0" speed="7.90" length="14.43" shape="1914.47,376.55 1913.28,372.75 1913.64,369.54 1915.54,366.93 1918.98,364.92"/>
    </edge>
    <edge id=":2102480800_3" function="internal">
        <lane id=":2102480800_3_0" index="0" speed="3.65" length="4.67" shape="1914.47,376.55 1914.67,375.13 1915.22,374.42 1916.12,374.44 1917.36,375.17"/>
    </edge>
    <edge id=":2102480800_4" function="internal">
        <lane id=":2102480800_4_0" index="0" speed="6.38" length="9.04" shape="1920.18,367.89 1918.03,369.15 1916.84,370.78 1916.61,372.79 1917.36,375.17"/>
    </edge>
    <edge id=":2102480800_5" function="internal">
        <lane id=":2102480800_5_0" index="0" speed="13.89" length="14.47" shape="1920.18,367.89 1906.75,373.25"/>
    </edge>
    <edge id=":2102480800_6" function="internal">
        <lane id=":2102480800_6_0" index="0" speed="7.90" length="4.16" shape="1920.18,367.89 1916.31,368.85 1916.14,368.82"/>
    </edge>
    <edge id=":2102480800_7" function="internal">
        <lane id=":2102480800_7_0" index="0" speed="3.65" length="1.44" shape="1920.18,367.89 1918.77,367.60"/>
    </edge>
    <edge id=":2102480800_16" function="internal">
        <lane id=":2102480800_16_0" index="0" speed="7.90" length="10.26" shape="1916.14,368.82 1913.13,368.30 1910.64,366.25 1908.84,362.70"/>
    </edge>
    <edge id=":2102480800_17" function="internal">
        <lane id=":2102480800_17_0" index="0" speed="3.65" length="3.23" shape="1918.77,367.60 1918.10,367.01 1918.17,366.12 1918.98,364.92"/>
    </edge>
    <edge id=":2102480800_8" function="internal">
        <lane id=":2102480800_8_0" index="0" speed="6.38" length="9.04" shape="1911.87,361.67 1913.00,363.90 1914.56,365.18 1916.55,365.52 1918.98,364.92"/>
    </edge>
    <edge id=":2102480800_9" function="internal">
        <lane id=":2102480800_9_0" index="0" speed="13.89" length="14.58" shape="1911.87,361.67 1913.10,365.14 1914.41,368.51 1915.82,371.83 1917.36,375.17"/>
    </edge>
    <edge id=":2102480800_10" function="internal">
        <lane id=":2102480800_10_0" index="0" speed="8.17" length="14.29" shape="1911.87,361.67 1912.62,365.56 1912.02,368.79 1910.06,371.35 1906.75,373.25"/>
    </edge>
    <edge id=":2102480800_11" function="internal">
        <lane id=":2102480800_11_0" index="0" speed="3.65" length="4.67" shape="1911.87,361.67 1911.49,363.06 1910.87,363.70 1909.98,363.58 1908.84,362.70"/>
    </edge>
    <edge id=":2102480800_12" function="internal">
        <lane id=":2102480800_12_0" index="0" speed="6.71" length="9.31" shape="1905.58,370.27 1907.71,369.04 1908.96,367.37 1909.34,365.26 1908.84,362.70"/>
    </edge>
    <edge id=":2102480800_13" function="internal">
        <lane id=":2102480800_13_0" index="0" speed="13.89" length="14.43" shape="1905.58,370.27 1918.98,364.92"/>
    </edge>
    <edge id=":2102480800_14" function="internal">
        <lane id=":2102480800_14_0" index="0" speed="8.25" length="3.95" shape="1905.58,370.27 1909.29,369.41 1909.43,369.43"/>
    </edge>
    <edge id=":2102480800_15" function="internal">
        <lane id=":2102480800_15_0" index="0" speed="3.65" length="1.44" shape="1905.58,370.27 1906.99,370.58"/>
    </edge>
    <edge id=":2102480800_18" function="internal">
        <lane id=":2102480800_18_0" index="0" speed="8.25" length="10.38" shape="1909.43,369.43 1912.50,369.94 1915.18,371.86 1917.36,375.17"/>
    </edge>
    <edge id=":2102480800_19" function="internal">
        <lane id=":2102480800_19_0" index="0" speed="3.65" length="3.23" shape="1906.99,370.58 1907.65,371.18 1907.57,372.07 1906.75,373.25"/>
    </edge>
    <edge id=":2102480801_0" function="internal">
        <lane id=":2102480801_0_0" index="0" speed="6.09" length="7.31" shape="1972.07,370.06 1972.51,371.99 1972.25,373.64 1971.30,375.02 1969.64,376.11"/>
    </edge>
    <edge id=":2102480801_1" function="internal">
        <lane id=":2102480801_1_0" index="0" speed="3.91" length="2.44" shape="1968.27,373.22 1968.82,372.85 1969.14,372.40 1969.23,371.85 1969.08,371.20"/>
    </edge>
    <edge id=":2102480803_0" function="internal">
        <lane id=":2102480803_0_0" index="0" speed="6.31" length="8.78" shape="1718.54,456.92 1717.37,454.72 1715.83,453.46 1713.92,453.13 1711.64,453.73"/>
    </edge>
    <edge id=":2102480803_1" function="internal">
        <lane id=":2102480803_1_0" index="0" speed="13.89" length="14.70" shape="1718.54,456.92 1713.32,443.19"/>
    </edge>
    <edge id=":2102480803_2" function="internal">
        <lane id=":2102480803_2_0" index="0" speed="8.26" length="14.53" shape="1718.54,456.92 1717.69,453.06 1718.24,449.79 1720.19,447.12 1723.55,445.04"/>
    </edge>
    <edge id=":2102480803_3" function="internal">
        <lane id=":2102480803_3_0" index="0" speed="3.65" length="4.67" shape="1718.54,456.92 1718.87,455.52 1719.48,454.86 1720.37,454.96 1721.54,455.80"/>
    </edge>
    <edge id=":2102480803_4" function="internal">
        <lane id=":2102480803_4_0" index="0" speed="6.81" length="9.57" shape="1724.83,447.97 1722.62,449.34 1721.34,451.10 1720.98,453.25 1721.54,455.80"/>
    </edge>
    <edge id=":2102480803_5" function="internal">
        <lane id=":2102480803_5_0" index="0" speed="13.89" length="14.39" shape="1724.83,447.97 1711.64,453.73"/>
    </edge>
    <edge id=":2102480803_6" function="internal">
        <lane id=":2102480803_6_0" index="0" speed="7.92" length="4.11" shape="1724.83,447.97 1721.02,449.03 1720.86,449.01"/>
    </edge>
    <edge id=":2102480803_7" function="internal">
        <lane id=":2102480803_7_0" index="0" speed="3.65" length="1.44" shape="1724.83,447.97 1723.41,447.72"/>
    </edge>
    <edge id=":2102480803_16" function="internal">
        <lane id=":2102480803_16_0" index="0" speed="7.92" length="10.25" shape="1720.86,449.01 1717.83,448.58 1715.26,446.64 1713.32,443.19"/>
    </edge>
    <edge id=":2102480803_17" function="internal">
        <lane id=":2102480803_17_0" index="0" speed="3.65" length="3.23" shape="1723.41,447.72 1722.72,447.15 1722.77,446.25 1723.55,445.04"/>
    </edge>
    <edge id=":2102480803_8" function="internal">
        <lane id=":2102480803_8_0" index="0" speed="6.41" length="9.04" shape="1716.30,442.03 1717.53,444.20 1719.14,445.43 1721.15,445.71 1723.55,445.04"/>
    </edge>
    <edge id=":2102480803_9" function="internal">
        <lane id=":2102480803_9_0" index="0" speed="13.89" length="14.74" shape="1716.30,442.03 1721.54,455.80"/>
    </edge>
    <edge id=":2102480803_10" function="internal">
        <lane id=":2102480803_10_0" index="0" speed="8.13" length="14.24" shape="1716.30,442.03 1717.22,445.86 1716.74,449.09 1714.89,451.72 1711.64,453.73"/>
    </edge>
    <edge id=":2102480803_11" function="internal">
        <lane id=":2102480803_11_0" index="0" speed="3.65" length="4.67" shape="1716.30,442.03 1715.99,443.44 1715.39,444.10 1714.50,444.01 1713.32,443.19"/>
    </edge>
    <edge id=":2102480803_12" function="internal">
        <lane id=":2102480803_12_0" index="0" speed="6.66" length="9.23" shape="1710.37,450.79 1712.45,449.50 1713.63,447.79 1713.92,445.69 1713.32,443.19"/>
    </edge>
    <edge id=":2102480803_13" function="internal">
        <lane id=":2102480803_13_0" index="0" speed="13.89" length="14.38" shape="1710.37,450.79 1723.55,445.04"/>
    </edge>
    <edge id=":2102480803_14" function="internal">
        <lane id=":2102480803_14_0" index="0" speed="7.84" length="3.95" shape="1710.37,450.79 1714.07,449.80 1714.18,449.82"/>
    </edge>
    <edge id=":2102480803_15" function="internal">
        <lane id=":2102480803_15_0" index="0" speed="3.65" length="1.44" shape="1710.37,450.79 1711.79,451.05"/>
    </edge>
    <edge id=":2102480803_18" function="internal">
        <lane id=":2102480803_18_0" index="0" speed="7.84" length="10.19" shape="1714.18,449.82 1717.16,450.31 1719.66,452.31 1721.54,455.80"/>
    </edge>
    <edge id=":2102480803_19" function="internal">
        <lane id=":2102480803_19_0" index="0" speed="3.65" length="3.23" shape="1711.79,451.05 1712.47,451.62 1712.43,452.52 1711.64,453.73"/>
    </edge>
    <edge id=":2102480805_0" function="internal">
        <lane id=":2102480805_0_0" index="0" speed="6.86" length="3.42" shape="1972.14,523.28 1971.98,524.27 1971.75,524.94 1971.33,525.51 1970.60,526.20"/>
    </edge>
    <edge id=":2102480805_1" function="internal">
        <lane id=":2102480805_1_0" index="0" speed="4.32" length="1.14" shape="1968.46,523.83 1968.70,523.60 1968.84,523.41 1968.92,523.18 1968.97,522.85"/>
    </edge>
    <edge id=":2102480808_0" function="internal">
        <lane id=":2102480808_0_0" index="0" speed="6.09" length="7.20" shape="1767.30,575.19 1765.36,575.43 1763.76,575.01 1762.50,573.94 1761.57,572.23"/>
    </edge>
    <edge id=":2102480808_1" function="internal">
        <lane id=":2102480808_1_0" index="0" speed="3.91" length="2.40" shape="1764.57,571.11 1764.88,571.68 1765.30,572.04 1765.83,572.18 1766.48,572.10"/>
    </edge>
    <edge id=":301037252_0" function="internal">
        <lane id=":301037252_0_0" index="0" speed="8.41" length="8.70" shape="546.31,781.57 545.51,779.82 544.19,778.32 542.34,777.09 539.98,776.12"/>
    </edge>
    <edge id=":301037252_1" function="internal">
        <lane id=":301037252_1_0" index="0" speed="9.50" length="12.95" shape="546.31,781.57 546.04,778.88 546.77,776.09 548.47,773.21 551.17,770.23"/>
    </edge>
    <edge id=":301037252_2" function="internal">
        <lane id=":301037252_2_0" index="0" speed="3.65" length="4.67" shape="546.31,781.57 546.75,780.20 547.41,779.59 548.29,779.76 549.39,780.69"/>
    </edge>
    <edge id=":301037252_3" function="internal">
        <lane id=":301037252_3_0" index="0" speed="7.70" length="8.29" shape="552.45,773.42 550.74,775.32 549.66,777.16 549.21,778.95 549.39,780.69"/>
    </edge>
    <edge id=":301037252_4" function="internal">
        <lane id=":301037252_4_0" index="0" speed="9.81" length="13.43" shape="552.45,773.42 549.70,775.46 546.70,776.59 543.46,776.81 539.98,776.12"/>
    </edge>
    <edge id=":301037252_5" function="internal">
        <lane id=":301037252_5_0" index="0" speed="3.74" length="1.55" shape="552.45,773.42 550.94,773.11"/>
    </edge>
    <edge id=":301037252_9" function="internal">
        <lane id=":301037252_9_0" index="0" speed="3.74" length="3.47" shape="550.94,773.11 550.22,772.47 550.29,771.51 551.17,770.23"/>
    </edge>
    <edge id=":301037252_6" function="internal">
        <lane id=":301037252_6_0" index="0" speed="9.36" length="12.17" shape="539.88,772.73 543.01,773.35 545.94,773.14 548.66,772.10 551.17,770.23"/>
    </edge>
    <edge id=":301037252_7" function="internal">
        <lane id=":301037252_7_0" index="0" speed="10.14" length="4.08" shape="539.88,772.73 543.46,774.18 543.64,774.30"/>
    </edge>
    <edge id=":301037252_8" function="internal">
        <lane id=":301037252_8_0" index="0" speed="3.72" length="1.76" shape="539.88,772.73 541.18,773.54 541.29,773.75"/>
    </edge>
    <edge id=":301037252_10" function="internal">
        <lane id=":301037252_10_0" index="0" speed="10.14" length="8.82" shape="543.64,774.30 546.23,775.99 548.21,778.16 549.39,780.69"/>
    </edge>
    <edge id=":301037252_11" function="internal">
        <lane id=":301037252_11_0" index="0" speed="3.72" length="3.19" shape="541.29,773.75 541.63,774.38 541.23,775.24 539.98,776.12"/>
    </edge>
    <edge id=":301037253_0" function="internal">
        <lane id=":301037253_0_0" index="0" speed="13.89" length="14.41" shape="397.50,836.68 391.60,823.53"/>
    </edge>
    <edge id=":301037253_1" function="internal">
        <lane id=":301037253_1_0" index="0" speed="8.03" length="4.06" shape="397.50,836.68 396.43,832.96 396.45,832.78"/>
    </edge>
    <edge id=":301037253_2" function="internal">
        <lane id=":301037253_2_0" index="0" speed="3.65" length="1.44" shape="397.50,836.68 397.74,835.26"/>
    </edge>
    <edge id=":301037253_9" function="internal">
        <lane id=":301037253_9_0" index="0" speed="8.03" length="10.15" shape="396.45,832.78 396.81,829.77 398.64,827.12 401.92,825.00"/>
    </edge>
    <edge id=":301037253_10" function="internal">
        <lane id=":301037253_10_0" index="0" speed="3.65" length="3.23" shape="397.74,835.26 398.30,834.56 399.20,834.60 400.42,835.37"/>
    </edge>
    <edge id=":301037253_3" function="internal">
        <lane id=":301037253_3_0" index="0" speed="6.54" length="9.08" shape="403.26,827.91 401.16,829.26 399.98,830.96 399.74,832.99 400.42,835.37"/>
    </edge>
    <edge id=":301037253_4" function="internal">
        <lane id=":301037253_4_0" index="0" speed="7.98" length="14.23" shape="403.26,827.91 399.52,829.03 396.33,828.67 393.69,826.84 391.60,823.53"/>
    </edge>
    <edge id=":301037253_5" function="internal">
        <lane id=":301037253_5_0" index="0" speed="3.65" length="4.67" shape="403.26,827.91 401.83,827.69 401.14,827.13 401.17,826.23 401.92,825.00"/>
    </edge>
    <edge id=":301037253_6" function="internal">
        <lane id=":301037253_6_0" index="0" speed="6.48" length="9.03" shape="394.52,822.23 395.85,824.32 397.52,825.48 399.55,825.71 401.92,825.00"/>
    </edge>
    <edge id=":301037253_7" function="internal">
        <lane id=":301037253_7_0" index="0" speed="13.89" length="14.40" shape="394.52,822.23 400.42,835.37"/>
    </edge>
    <edge id=":301037253_8" function="internal">
        <lane id=":301037253_8_0" index="0" speed="3.65" length="1.44" shape="394.52,822.23 394.28,823.65"/>
    </edge>
    <edge id=":301037253_11" function="internal">
        <lane id=":301037253_11_0" index="0" speed="3.65" length="3.23" shape="394.28,823.65 393.72,824.34 392.82,824.30 391.60,823.53"/>
    </edge>
    <edge id=":301037254_0" function="internal">
        <lane id=":301037254_0_0" index="0" speed="8.84" length="8.46" shape="485.92,1030.40 485.00,1029.01 483.54,1027.80 481.55,1026.78 479.03,1025.94"/>
    </edge>
    <edge id=":301037254_1" function="internal">
        <lane id=":301037254_1_0" index="0" speed="13.89" length="12.04" shape="485.92,1030.40 485.24,1027.34 485.74,1024.71 486.70,1022.00 487.38,1018.71"/>
    </edge>
    <edge id=":301037254_2" function="internal">
        <lane id=":301037254_2_0" index="0" speed="3.65" length="4.67" shape="485.92,1030.40 486.17,1028.98 486.74,1028.29 487.63,1028.33 488.85,1029.11"/>
    </edge>
    <edge id=":301037254_3" function="internal">
        <lane id=":301037254_3_0" index="0" speed="9.73" length="8.61" shape="489.83,1020.74 488.95,1023.37 488.49,1025.64 488.46,1027.55 488.85,1029.11"/>
    </edge>
    <edge id=":301037254_4" function="internal">
        <lane id=":301037254_4_0" index="0" speed="8.10" length="13.37" shape="489.83,1020.74 488.09,1023.81 485.70,1025.70 482.68,1026.41 479.03,1025.94"/>
    </edge>
    <edge id=":301037254_5" function="internal">
        <lane id=":301037254_5_0" index="0" speed="3.78" length="0.97" shape="489.83,1020.74 488.90,1021.02"/>
    </edge>
    <edge id=":301037254_9" function="internal">
        <lane id=":301037254_9_0" index="0" speed="3.78" length="3.67" shape="488.90,1021.02 488.46,1021.15 487.59,1020.95 487.23,1020.14 487.38,1018.71"/>
    </edge>
    <edge id=":301037254_6" function="internal">
        <lane id=":301037254_6_0" index="0" speed="6.63" length="10.71" shape="479.27,1022.69 482.63,1023.21 485.11,1022.72 486.69,1021.22 487.38,1018.71"/>
    </edge>
    <edge id=":301037254_7" function="internal">
        <lane id=":301037254_7_0" index="0" speed="10.39" length="3.79" shape="479.27,1022.69 482.74,1023.86 482.85,1023.92"/>
    </edge>
    <edge id=":301037254_8" function="internal">
        <lane id=":301037254_8_0" index="0" speed="3.67" length="1.47" shape="479.27,1022.69 480.42,1023.59"/>
    </edge>
    <edge id=":301037254_10" function="internal">