<?xml version="1.0" encoding="UTF-8"?>

<!-- generated on 2022-09-17 10:33:44 by Eclipse SUMO netedit Version 1.14.1
<configuration xmlns:xsi="http://www.w3.org/2001/XMLSchema-instance" xsi:noNamespaceSchemaLocation="http://sumo.dlr.de/xsd/netconvertConfiguration.xsd">

    <input>
        <sumo-net-file value="/home/vishwajeet/ddp_workspace/src/mrpp_iot/graph_sumo/iit_madras.net.xml"/>
    </input>

    <output>
        <output-file value="/home/vishwajeet/ddp_workspace/src/mrpp_iot/graph_sumo/iit_madras.net.xml"/>
    </output>

    <processing>
        <geometry.min-radius.fix.railways value="false"/>
        <geometry.max-grade.fix value="false"/>
        <offset.disable-normalization value="true"/>
        <lefthand value="false"/>
    </processing>

    <junctions>
        <no-turnarounds value="true"/>
        <junctions.corner-detail value="5"/>
        <junctions.limit-turn-speed value="5.5"/>
        <rectangular-lane-cut value="false"/>
    </junctions>

    <pedestrian>
        <walkingareas value="false"/>
    </pedestrian>

</configuration>
-->

<connections version="1.9" xmlns:xsi="http://www.w3.org/2001/XMLSchema-instance" xsi:noNamespaceSchemaLocation="http://sumo.dlr.de/xsd/connections_file.xsd">
    <connection from="1515242053to330654123" to="330654123to275676982" fromLane="0" toLane="0"/>
    <connection from="1515242053to330654123" to="330654123to275676979" fromLane="0" toLane="0"/>
    <connection from="1515242053to330654123" to="330654123to1515242053" fromLane="0" toLane="0"/>

    <connection from="2164168433to330654038" to="330654038to3098974997" fromLane="0" toLane="0"/>
    <connection from="2164168433to330654038" to="330654038to330654081" fromLane="0" toLane="0"/>
    <connection from="2164168433to330654038" to="330654038to2164168433" fromLane="0" toLane="0"/>

    <connection from="2164168455to275676975" to="275676975to2167078770" fromLane="0" toLane="0"/>
    <connection from="2164168455to275676975" to="275676975to2167078771" fromLane="0" toLane="0"/>
    <connection from="2164168455to275676975" to="275676975to2164168455" fromLane="0" toLane="0"/>

    <connection from="2166694724to2166694752" to="2166694752to2166694724" fromLane="0" toLane="0"/>

    <connection from="2166694724to330653353" to="330653353to268789973" fromLane="0" toLane="0"/>
    <connection from="2166694724to330653353" to="330653353to275675441" fromLane="0" toLane="0"/>
    <connection from="2166694724to330653353" to="330653353to2166694724" fromLane="0" toLane="0"/>

    <connection from="2166694724to330653384" to="330653384to2166703022" fromLane="0" toLane="0"/>

    <connection from="2166694752to2166694724" to="2166694724to330653353" fromLane="0" toLane="0"/>
    <connection from="2166694752to2166694724" to="2166694724to330653384" fromLane="0" toLane="0"/>
    <connection from="2166694752to2166694724" to="2166694724to2166694752" fromLane="0" toLane="0"/>

    <connection from="2166703022to275676979" to="275676979to330654139" fromLane="0" toLane="0"/>
    <connection from="2166703022to275676979" to="275676979to330654123" fromLane="0" toLane="0"/>
    <connection from="2166703022to275676979" to="275676979to2166703022" fromLane="0" toLane="0"/>

    <connection from="2166703022to330653384" to="330653384to2166694724" fromLane="0" toLane="0"/>

    <connection from="2167078769to2167078770" to="2167078770to330654139" fromLane="0" toLane="0"/>
    <connection from="2167078769to2167078770" to="2167078770to275676975" fromLane="0" toLane="0"/>
    <connection from="2167078769to2167078770" to="2167078770to2167078769" fromLane="0" toLane="0"/>

    <connection from="2167078770to2167078769" to="2167078769to2167078770" fromLane="0" toLane="0"/>

    <connection from="2167078770to275676975" to="275676975to2167078771" fromLane="0" toLane="0"/>
    <connection from="2167078770to275676975" to="275676975to2164168455" fromLane="0" toLane="0"/>
    <connection from="2167078770to275676975" to="275676975to2167078770" fromLane="0" toLane="0"/>

    <connection from="2167078770to330654139" to="330654139to330654081" fromLane="0" toLane="0"/>
    <connection from="2167078770to330654139" to="330654139to275676979" fromLane="0" toLane="0"/>
    <connection from="2167078770to330654139" to="330654139to2167078770" fromLane="0" toLane="0"/>

    <connection from="2167078771to2167078772" to="2167078772to2167078771" fromLane="0" toLane="0"/>

    <connection from="2167078771to275675441" to="275675441to330653353" fromLane="0" toLane="0"/>
    <connection from="2167078771to275675441" to="275675441to330648048" fromLane="0" toLane="0"/>
    <connection from="2167078771to275675441" to="275675441to2167078771" fromLane="0" toLane="0"/>

    <connection from="2167078771to275676975" to="275676975to2164168455" fromLane="0" toLane="0"/>
    <connection from="2167078771to275676975" to="275676975to2167078770" fromLane="0" toLane="0"/>
    <connection from="2167078771to275676975" to="275676975to2167078771" fromLane="0" toLane="0"/>

    <connection from="2167078772to2167078771" to="2167078771to275675441" fromLane="0" toLane="0"/>
    <connection from="2167078772to2167078771" to="2167078771to275676975" fromLane="0" toLane="0"/>
    <connection from="2167078772to2167078771" to="2167078771to2167078772" fromLane="0" toLane="0"/>

    <connection from="268789836to268789959" to="268789959to3248845375" fromLane="0" toLane="0"/>

    <connection from="268789875to268789954" to="268789954to3248845375" fromLane="0" toLane="0"/>
    <connection from="268789875to268789954" to="268789954to268789950" fromLane="0" toLane="0"/>
    <connection from="268789875to268789954" to="268789954to268789875" fromLane="0" toLane="0"/>

    <connection from="268789875to268789971" to="268789971to268789969" fromLane="0" toLane="0"/>
    <connection from="268789875to268789971" to="268789971to268789973" fromLane="0" toLane="0"/>
    <connection from="268789875to268789971" to="268789971to268789875" fromLane="0" toLane="0"/>

    <connection from="268789875to3371735080" to="3371735080to268789961" fromLane="0" toLane="0"/>
    <connection from="268789875to3371735080" to="3371735080to268790000" fromLane="0" toLane="0"/>
    <connection from="268789875to3371735080" to="3371735080to268789969" fromLane="0" toLane="0"/>
    <connection from="268789875to3371735080" to="3371735080to268789875" fromLane="0" toLane="0"/>

    <connection from="268789877to268789882" to="268789882to268789999" fromLane="0" toLane="0"/>
    <connection from="268789877to268789882" to="268789882to268789961" fromLane="0" toLane="0"/>
    <connection from="268789877to268789882" to="268789882to268789877" fromLane="0" toLane="0"/>

    <connection from="268789877to268789942" to="268789942to268789950" fromLane="0" toLane="0"/>
    <connection from="268789877to268789942" to="268789942to3248845375" fromLane="0" toLane="0"/>
    <connection from="268789877to268789942" to="268789942to268789877" fromLane="0" toLane="0"/>

    <connection from="268789877to268789961" to="268789961to268789882" fromLane="0" toLane="0"/>
    <connection from="268789877to268789961" to="268789961to3371735080" fromLane="0" toLane="0"/>
    <connection from="268789877to268789961" to="268789961to268789950" fromLane="0" toLane="0"/>
    <connection from="268789877to268789961" to="268789961to268789877" fromLane="0" toLane="0"/>

    <connection from="268789882to268789877" to="268789877to268789961" fromLane="0" toLane="0"/>
    <connection from="268789882to268789877" to="268789877to268789942" fromLane="0" toLane="0"/>
    <connection from="268789882to268789877" to="268789877to268789882" fromLane="0" toLane="0"/>

    <connection from="268789882to268789961" to="268789961to3371735080" fromLane="0" toLane="0"/>
    <connection from="268789882to268789961" to="268789961to268789950" fromLane="0" toLane="0"/>
    <connection from="268789882to268789961" to="268789961to268789877" fromLane="0" toLane="0"/>
    <connection from="268789882to268789961" to="268789961to268789882" fromLane="0" toLane="0"/>

    <connection from="268789882to268789999" to="268789999to330612289" fromLane="0" toLane="0"/>
    <connection from="268789882to268789999" to="268789999to268790000" fromLane="0" toLane="0"/>
    <connection from="268789882to268789999" to="268789999to268789882" fromLane="0" toLane="0"/>

    <connection from="268789942to268789877" to="268789877to268789882" fromLane="0" toLane="0"/>
    <connection from="268789942to268789877" to="268789877to268789961" fromLane="0" toLane="0"/>
    <connection from="268789942to268789877" to="268789877to268789942" fromLane="0" toLane="0"/>

    <connection from="268789942to268789950" to="268789950to268789961" fromLane="0" toLane="0"/>
    <connection from="268789942to268789950" to="268789950to268789954" fromLane="0" toLane="0"/>
    <connection from="268789942to268789950" to="268789950to268789942" fromLane="0" toLane="0"/>

    <connection from="268789942to3248845375" to="3248845375to268789954" fromLane="0" toLane="0"/>
    <connection from="268789942to3248845375" to="3248845375to268789959" fromLane="0" toLane="0"/>
    <connection from="268789942to3248845375" to="3248845375to268789942" fromLane="0" toLane="0"/>

    <connection from="268789950to268789942" to="268789942to3248845375" fromLane="0" toLane="0"/>
    <connection from="268789950to268789942" to="268789942to268789877" fromLane="0" toLane="0"/>
    <connection from="268789950to268789942" to="268789942to268789950" fromLane="0" toLane="0"/>

    <connection from="268789950to268789954" to="268789954to268789875" fromLane="0" toLane="0"/>
    <connection from="268789950to268789954" to="268789954to3248845375" fromLane="0" toLane="0"/>
    <connection from="268789950to268789954" to="268789954to268789950" fromLane="0" toLane="0"/>

    <connection from="268789950to268789961" to="268789961to268789877" fromLane="0" toLane="0"/>
    <connection from="268789950to268789961" to="268789961to268789882" fromLane="0" toLane="0"/>
    <connection from="268789950to268789961" to="268789961to3371735080" fromLane="0" toLane="0"/>
    <connection from="268789950to268789961" to="268789961to268789950" fromLane="0" toLane="0"/>

    <connection from="268789954to268789875" to="268789875to3371735080" fromLane="0" toLane="0"/>
    <connection from="268789954to268789875" to="268789875to268789971" fromLane="0" toLane="0"/>
    <connection from="268789954to268789875" to="268789875to268789954" fromLane="0" toLane="0"/>

    <connection from="268789954to268789950" to="268789950to268789942" fromLane="0" toLane="0"/>
    <connection from="268789954to268789950" to="268789950to268789961" fromLane="0" toLane="0"/>
    <connection from="268789954to268789950" to="268789950to268789954" fromLane="0" toLane="0"/>

    <connection from="268789954to3248845375" to="3248845375to268789959" fromLane="0" toLane="0"/>
    <connection from="268789954to3248845375" to="3248845375to268789942" fromLane="0" toLane="0"/>
    <connection from="268789954to3248845375" to="3248845375to268789954" fromLane="0" toLane="0"/>

    <connection from="268789959to268789836" to="268789836to268789959" fromLane="0" toLane="0"/>

    <connection from="268789959to3248845375" to="3248845375to268789942" fromLane="0" toLane="0"/>
    <connection from="268789959to3248845375" to="3248845375to268789954" fromLane="0" toLane="0"/>
    <connection from="268789959to3248845375" to="3248845375to268789959" fromLane="0" toLane="0"/>

    <connection from="268789961to268789877" to="268789877to268789942" fromLane="0" toLane="0"/>
    <connection from="268789961to268789877" to="268789877to268789882" fromLane="0" toLane="0"/>
    <connection from="268789961to268789877" to="268789877to268789961" fromLane="0" toLane="0"/>

    <connection from="268789961to268789882" to="268789882to268789877" fromLane="0" toLane="0"/>
    <connection from="268789961to268789882" to="268789882to268789999" fromLane="0" toLane="0"/>
    <connection from="268789961to268789882" to="268789882to268789961" fromLane="0" toLane="0"/>

    <connection from="268789961to268789950" to="268789950to268789954" fromLane="0" toLane="0"/>
    <connection from="268789961to268789950" to="268789950to268789942" fromLane="0" toLane="0"/>
    <connection from="268789961to268789950" to="268789950to268789961" fromLane="0" toLane="0"/>

    <connection from="268789961to3371735080" to="3371735080to268790000" fromLane="0" toLane="0"/>
    <connection from="268789961to3371735080" to="3371735080to268789969" fromLane="0" toLane="0"/>
    <connection from="268789961to3371735080" to="3371735080to268789875" fromLane="0" toLane="0"/>
    <connection from="268789961to3371735080" to="3371735080to268789961" fromLane="0" toLane="0"/>

    <connection from="268789969to268789971" to="268789971to268789973" fromLane="0" toLane="0"/>
    <connection from="268789969to268789971" to="268789971to268789875" fromLane="0" toLane="0"/>
    <connection from="268789969to268789971" to="268789971to268789969" fromLane="0" toLane="0"/>

    <connection from="268789969to268789976" to="268789976to268790010" fromLane="0" toLane="0"/>
    <connection from="268789969to268789976" to="268789976to268789973" fromLane="0" toLane="0"/>
    <connection from="268789969to268789976" to="268789976to268789969" fromLane="0" toLane="0"/>

    <connection from="268789969to3371735080" to="3371735080to268789875" fromLane="0" toLane="0"/>
    <connection from="268789969to3371735080" to="3371735080to268789961" fromLane="0" toLane="0"/>
    <connection from="268789969to3371735080" to="3371735080to268790000" fromLane="0" toLane="0"/>
    <connection from="268789969to3371735080" to="3371735080to268789969" fromLane="0" toLane="0"/>

    <connection from="268789971to268789875" to="268789875to268789954" fromLane="0" toLane="0"/>
    <connection from="268789971to268789875" to="268789875to3371735080" fromLane="0" toLane="0"/>
    <connection from="268789971to268789875" to="268789875to268789971" fromLane="0" toLane="0"/>

    <connection from="268789971to268789969" to="268789969to3371735080" fromLane="0" toLane="0"/>
    <connection from="268789971to268789969" to="268789969to268789976" fromLane="0" toLane="0"/>
    <connection from="268789971to268789969" to="268789969to268789971" fromLane="0" toLane="0"/>

    <connection from="268789971to268789973" to="268789973to268789976" fromLane="0" toLane="0"/>
    <connection from="268789971to268789973" to="268789973to330653353" fromLane="0" toLane="0"/>
    <connection from="268789971to268789973" to="268789973to268789971" fromLane="0" toLane="0"/>

    <connection from="268789973to268789971" to="268789971to268789875" fromLane="0" toLane="0"/>
    <connection from="268789973to268789971" to="268789971to268789969" fromLane="0" toLane="0"/>
    <connection from="268789973to268789971" to="268789971to268789973" fromLane="0" toLane="0"/>

    <connection from="268789973to268789976" to="268789976to268789969" fromLane="0" toLane="0"/>
    <connection from="268789973to268789976" to="268789976to268790010" fromLane="0" toLane="0"/>
    <connection from="268789973to268789976" to="268789976to268789973" fromLane="0" toLane="0"/>

    <connection from="268789973to330653353" to="330653353to275675441" fromLane="0" toLane="0"/>
    <connection from="268789973to330653353" to="330653353to2166694724" fromLane="0" toLane="0"/>
    <connection from="268789973to330653353" to="330653353to268789973" fromLane="0" toLane="0"/>

    <connection from="268789976to268789969" to="268789969to268789971" fromLane="0" toLane="0"/>
    <connection from="268789976to268789969" to="268789969to3371735080" fromLane="0" toLane="0"/>
    <connection from="268789976to268789969" to="268789969to268789976" fromLane="0" toLane="0"/>

    <connection from="268789976to268789973" to="268789973to330653353" fromLane="0" toLane="0"/>
    <connection from="268789976to268789973" to="268789973to268789971" fromLane="0" toLane="0"/>
    <connection from="268789976to268789973" to="268789973to268789976" fromLane="0" toLane="0"/>

    <connection from="268789976to268790010" to="268790010to330612289" fromLane="0" toLane="0"/>
    <connection from="268789976to268790010" to="268790010to330648048" fromLane="0" toLane="0"/>
    <connection from="268789976to268790010" to="268790010to268789976" fromLane="0" toLane="0"/>

    <connection from="268789999to268789882" to="268789882to268789961" fromLane="0" toLane="0"/>
    <connection from="268789999to268789882" to="268789882to268789877" fromLane="0" toLane="0"/>
    <connection from="268789999to268789882" to="268789882to268789999" fromLane="0" toLane="0"/>

    <connection from="268789999to268790000" to="268790000to330612289" fromLane="0" toLane="0"/>
    <connection from="268789999to268790000" to="268790000to3371735080" fromLane="0" toLane="0"/>
    <connection from="268789999to268790000" to="268790000to268789999" fromLane="0" toLane="0"/>

    <connection from="268789999to330612289" to="330612289to268790010" fromLane="0" toLane="0"/>
    <connection from="268789999to330612289" to="330612289to268790000" fromLane="0" toLane="0"/>
    <connection from="268789999to330612289" to="330612289to268789999" fromLane="0" toLane="0"/>

    <connection from="268790000to268789999" to="268789999to268789882" fromLane="0" toLane="0"/>
    <connection from="268790000to268789999" to="268789999to330612289" fromLane="0" toLane="0"/>
    <connection from="268790000to268789999" to="268789999to268790000" fromLane="0" toLane="0"/>

    <connection from="268790000to330612289" to="330612289to268789999" fromLane="0" toLane="0"/>
    <connection from="268790000to330612289" to="330612289to268790010" fromLane="0" toLane="0"/>
    <connection from="268790000to330612289" to="330612289to268790000" fromLane="0" toLane="0"/>

    <connection from="268790000to3371735080" to="3371735080to268789969" fromLane="0" toLane="0"/>
    <connection from="268790000to3371735080" to="3371735080to268789875" fromLane="0" toLane="0"/>
    <connection from="268790000to3371735080" to="3371735080to268789961" fromLane="0" toLane="0"/>
    <connection from="268790000to3371735080" to="3371735080to268790000" fromLane="0" toLane="0"/>

    <connection from="268790010to268789976" to="268789976to268789973" fromLane="0" toLane="0"/>
    <connection from="268790010to268789976" to="268789976to268789969" fromLane="0" toLane="0"/>
    <connection from="268790010to268789976" to="268789976to268790010" fromLane="0" toLane="0"/>

    <connection from="268790010to330612289" to="330612289to268790000" fromLane="0" toLane="0"/>
    <connection from="268790010to330612289" to="330612289to268789999" fromLane="0" toLane="0"/>
    <connection from="268790010to330612289" to="330612289to268790010" fromLane="0" toLane="0"/>

    <connection from="268790010to330648048" to="330648048to330780901" fromLane="0" toLane="0"/>
    <connection from="268790010to330648048" to="330648048to275675441" fromLane="0" toLane="0"/>
    <connection from="268790010to330648048" to="330648048to268790010" fromLane="0" toLane="0"/>

    <connection from="275675441to2167078771" to="2167078771to275676975" fromLane="0" toLane="0"/>
    <connection from="275675441to2167078771" to="2167078771to2167078772" fromLane="0" toLane="0"/>
    <connection from="275675441to2167078771" to="2167078771to275675441" fromLane="0" toLane="0"/>

    <connection from="275675441to330648048" to="330648048to268790010" fromLane="0" toLane="0"/>
    <connection from="275675441to330648048" to="330648048to330780901" fromLane="0" toLane="0"/>
    <connection from="275675441to330648048" to="330648048to275675441" fromLane="0" toLane="0"/>

    <connection from="275675441to330653353" to="330653353to2166694724" fromLane="0" toLane="0"/>
    <connection from="275675441to330653353" to="330653353to268789973" fromLane="0" toLane="0"/>
    <connection from="275675441to330653353" to="330653353to275675441" fromLane="0" toLane="0"/>

    <connection from="275676975to2164168455" to="2164168455to275676975" fromLane="0" toLane="0"/>

    <connection from="275676975to2167078770" to="2167078770to2167078769" fromLane="0" toLane="0"/>
    <connection from="275676975to2167078770" to="2167078770to330654139" fromLane="0" toLane="0"/>
    <connection from="275676975to2167078770" to="2167078770to275676975" fromLane="0" toLane="0"/>

    <connection from="275676975to2167078771" to="2167078771to2167078772" fromLane="0" toLane="0"/>
    <connection from="275676975to2167078771" to="2167078771to275675441" fromLane="0" toLane="0"/>
    <connection from="275676975to2167078771" to="2167078771to275676975" fromLane="0" toLane="0"/>

    <connection from="275676979to2166703022" to="2166703022to330653384" fromLane="0" toLane="0"/>

    <connection from="275676979to330654123" to="330654123to1515242053" fromLane="0" toLane="0"/>
    <connection from="275676979to330654123" to="330654123to275676982" fromLane="0" toLane="0"/>
    <connection from="275676979to330654123" to="330654123to275676979" fromLane="0" toLane="0"/>

    <connection from="275676979to330654139" to="330654139to2167078770" fromLane="0" toLane="0"/>
    <connection from="275676979to330654139" to="330654139to330654081" fromLane="0" toLane="0"/>
    <connection from="275676979to330654139" to="330654139to275676979" fromLane="0" toLane="0"/>

    <connection from="275676982to330654123" to="330654123to275676979" fromLane="0" toLane="0"/>
    <connection from="275676982to330654123" to="330654123to1515242053" fromLane="0" toLane="0"/>
    <connection from="275676982to330654123" to="330654123to275676982" fromLane="0" toLane="0"/>

    <connection from="3098974997to330654038" to="330654038to330654081" fromLane="0" toLane="0"/>
    <connection from="3098974997to330654038" to="330654038to2164168433" fromLane="0" toLane="0"/>
    <connection from="3098974997to330654038" to="330654038to3098974997" fromLane="0" toLane="0"/>

    <connection from="3248845375to268789942" to="268789942to268789877" fromLane="0" toLane="0"/>
    <connection from="3248845375to268789942" to="268789942to268789950" fromLane="0" toLane="0"/>
    <connection from="3248845375to268789942" to="268789942to3248845375" fromLane="0" toLane="0"/>

    <connection from="3248845375to268789954" to="268789954to268789950" fromLane="0" toLane="0"/>
    <connection from="3248845375to268789954" to="268789954to268789875" fromLane="0" toLane="0"/>
    <connection from="3248845375to268789954" to="268789954to3248845375" fromLane="0" toLane="0"/>

    <connection from="3248845375to268789959" to="268789959to268789836" fromLane="0" toLane="0"/>

    <connection from="330612289to268789999" to="268789999to268790000" fromLane="0" toLane="0"/>
    <connection from="330612289to268789999" to="268789999to268789882" fromLane="0" toLane="0"/>
    <connection from="330612289to268789999" to="268789999to330612289" fromLane="0" toLane="0"/>

    <connection from="330612289to268790000" to="268790000to3371735080" fromLane="0" toLane="0"/>
    <connection from="330612289to268790000" to="268790000to268789999" fromLane="0" toLane="0"/>
    <connection from="330612289to268790000" to="268790000to330612289" fromLane="0" toLane="0"/>

    <connection from="330612289to268790010" to="268790010to330648048" fromLane="0" toLane="0"/>
    <connection from="330612289to268790010" to="268790010to268789976" fromLane="0" toLane="0"/>
    <connection from="330612289to268790010" to="268790010to330612289" fromLane="0" toLane="0"/>

    <connection from="330648048to268790010" to="268790010to268789976" fromLane="0" toLane="0"/>
    <connection from="330648048to268790010" to="268790010to330612289" fromLane="0" toLane="0"/>
    <connection from="330648048to268790010" to="268790010to330648048" fromLane="0" toLane="0"/>

    <connection from="330648048to275675441" to="275675441to2167078771" fromLane="0" toLane="0"/>
    <connection from="330648048to275675441" to="275675441to330653353" fromLane="0" toLane="0"/>
    <connection from="330648048to275675441" to="275675441to330648048" fromLane="0" toLane="0"/>

    <connection from="330648048to330780901" to="330780901to330648048" fromLane="0" toLane="0"/>

    <connection from="330653353to2166694724" to="2166694724to330653384" fromLane="0" toLane="0"/>
    <connection from="330653353to2166694724" to="2166694724to2166694752" fromLane="0" toLane="0"/>
    <connection from="330653353to2166694724" to="2166694724to330653353" fromLane="0" toLane="0"/>

    <connection from="330653353to268789973" to="268789973to268789971" fromLane="0" toLane="0"/>
    <connection from="330653353to268789973" to="268789973to268789976" fromLane="0" toLane="0"/>
    <connection from="330653353to268789973" to="268789973to330653353" fromLane="0" toLane="0"/>

    <connection from="330653353to275675441" to="275675441to330648048" fromLane="0" toLane="0"/>
    <connection from="330653353to275675441" to="275675441to2167078771" fromLane="0" toLane="0"/>
    <connection from="330653353to275675441" to="275675441to330653353" fromLane="0" toLane="0"/>

    <connection from="330653384to2166694724" to="2166694724to2166694752" fromLane="0" toLane="0"/>
    <connection from="330653384to2166694724" to="2166694724to330653353" fromLane="0" toLane="0"/>
    <connection from="330653384to2166694724" to="2166694724to330653384" fromLane="0" toLane="0"/>

    <connection from="330653384to2166703022" to="2166703022to275676979" fromLane="0" toLane="0"/>

    <connection from="330654038to2164168433" to="2164168433to330654038" fromLane="0" toLane="0"/>

    <connection from="330654038to3098974997" to="3098974997to330654038" fromLane="0" toLane="0"/>

    <connection from="330654038to330654081" to="330654081to330654083" fromLane="0" toLane="0"/>
    <connection from="330654038to330654081" to="330654081to330654139" fromLane="0" toLane="0"/>
    <connection from="330654038to330654081" to="330654081to330654038" fromLane="0" toLane="0"/>

    <connection from="330654081to330654038" to="330654038to2164168433" fromLane="0" toLane="0"/>
    <connection from="330654081to330654038" to="330654038to3098974997" fromLane="0" toLane="0"/>
    <connection from="330654081to330654038" to="330654038to330654081" fromLane="0" toLane="0"/>

    <connection from="330654081to330654083" to="330654083to330654081" fromLane="0" toLane="0"/>

    <connection from="330654081to330654139" to="330654139to275676979" fromLane="0" toLane="0"/>
    <connection from="330654081to330654139" to="330654139to2167078770" fromLane="0" toLane="0"/>
    <connection from="330654081to330654139" to="330654139to330654081" fromLane="0" toLane="0"/>

    <connection from="330654083to330654081" to="330654081to330654139" fromLane="0" toLane="0"/>
    <connection from="330654083to330654081" to="330654081to330654038" fromLane="0" toLane="0"/>
    <connection from="330654083to330654081" to="330654081to330654083" fromLane="0" toLane="0"/>

    <connection from="330654123to1515242053" to="1515242053to330654123" fromLane="0" toLane="0"/>

    <connection from="330654123to275676979" to="275676979to2166703022" fromLane="0" toLane="0"/>
    <connection from="330654123to275676979" to="275676979to330654139" fromLane="0" toLane="0"/>
    <connection from="330654123to275676979" to="275676979to330654123" fromLane="0" toLane="0"/>

    <connection from="330654123to275676982" to="275676982to330654123" fromLane="0" toLane="0"/>

    <connection from="330654139to2167078770" to="2167078770to275676975" fromLane="0" toLane="0"/>
    <connection from="330654139to2167078770" to="2167078770to2167078769" fromLane="0" toLane="0"/>
    <connection from="330654139to2167078770" to="2167078770to330654139" fromLane="0" toLane="0"/>

    <connection from="330654139to275676979" to="275676979to330654123" fromLane="0" toLane="0"/>
    <connection from="330654139to275676979" to="275676979to2166703022" fromLane="0" toLane="0"/>
    <connection from="330654139to275676979" to="275676979to330654139" fromLane="0" toLane="0"/>

    <connection from="330654139to330654081" to="330654081to330654038" fromLane="0" toLane="0"/>
    <connection from="330654139to330654081" to="330654081to330654083" fromLane="0" toLane="0"/>
    <connection from="330654139to330654081" to="330654081to330654139" fromLane="0" toLane="0"/>

    <connection from="330780901to330648048" to="330648048to275675441" fromLane="0" toLane="0"/>
    <connection from="330780901to330648048" to="330648048to268790010" fromLane="0" toLane="0"/>
    <connection from="330780901to330648048" to="330648048to330780901" fromLane="0" toLane="0"/>

    <connection from="3371735080to268789875" to="268789875to268789971" fromLane="0" toLane="0"/>
    <connection from="3371735080to268789875" to="268789875to268789954" fromLane="0" toLane="0"/>
    <connection from="3371735080to268789875" to="268789875to3371735080" fromLane="0" toLane="0"/>

    <connection from="3371735080to268789961" to="268789961to268789950" fromLane="0" toLane="0"/>
    <connection from="3371735080to268789961" to="268789961to268789877" fromLane="0" toLane="0"/>
    <connection from="3371735080to268789961" to="268789961to268789882" fromLane="0" toLane="0"/>
    <connection from="3371735080to268789961" to="268789961to3371735080" fromLane="0" toLane="0"/>

    <connection from="3371735080to268789969" to="268789969to268789976" fromLane="0" toLane="0"/>
    <connection from="3371735080to268789969" to="268789969to268789971" fromLane="0" toLane="0"/>
    <connection from="3371735080to268789969" to="268789969to3371735080" fromLane="0" toLane="0"/>

    <connection from="3371735080to268790000" to="268790000to268789999" fromLane="0" toLane="0"/>
    <connection from="3371735080to268790000" to="268790000to330612289" fromLane="0" toLane="0"/>
    <connection from="3371735080to268790000" to="268790000to3371735080" fromLane="0" toLane="0"/>

</connections>
