<?xml version="1.0" encoding="UTF-8"?>

<!-- generated on 2022-09-17 09:54:22 by Eclipse SUMO netedit Version 1.14.1
<configuration xmlns:xsi="http://www.w3.org/2001/XMLSchema-instance" xsi:noNamespaceSchemaLocation="http://sumo.dlr.de/xsd/netconvertConfiguration.xsd">

    <input>
        <sumo-net-file value="/home/vishwajeet/ddp_workspace/src/mrpp_iot/graph_sumo/iit_delhi.net.xml"/>
    </input>

    <output>
        <output-file value="/home/vishwajeet/ddp_workspace/src/mrpp_iot/graph_sumo/iit_delhi.net.xml"/>
    </output>

    <processing>
        <geometry.min-radius.fix.railways value="false"/>
        <geometry.max-grade.fix value="false"/>
        <offset.disable-normalization value="true"/>
        <lefthand value="false"/>
    </processing>

    <junctions>
        <no-turnarounds value="true"/>
        <junctions.corner-detail value="5"/>
        <junctions.limit-turn-speed value="5.5"/>
        <rectangular-lane-cut value="false"/>
    </junctions>

    <pedestrian>
        <walkingareas value="false"/>
    </pedestrian>

</configuration>
-->

<edges version="1.9" xmlns:xsi="http://www.w3.org/2001/XMLSchema-instance" xsi:noNamespaceSchemaLocation="http://sumo.dlr.de/xsd/edges_file.xsd">
    <edge id="2102480543to4233524597" from="2102480543" to="4233524597" priority="-1" numLanes="1" speed="13.89"/>
    <edge id="2102480543to4233524600" from="2102480543" to="4233524600" priority="-1" numLanes="1" speed="13.89" shape="1802.91,92.88 1824.37,84.26 1828.39,83.12 1833.15,83.05 1837.90,84.02 1875.43,95.70"/>
    <edge id="2102480543to4233654430" from="2102480543" to="4233654430" priority="-1" numLanes="1" speed="13.89"/>
    <edge id="2102480543to9186411596" from="2102480543" to="9186411596" priority="-1" numLanes="1" speed="13.89" shape="1802.91,92.88 1816.26,123.89 1835.98,176.60"/>
    <edge id="2102480576to4233654441" from="2102480576" to="4233654441" priority="-1" numLanes="1" speed="13.89"/>
    <edge id="2102480576to4233654471" from="2102480576" to="4233654471" priority="-1" numLanes="1" speed="13.89"/>
    <edge id="2102480576to4233654485" from="2102480576" to="4233654485" priority="-1" numLanes="1" speed="13.89" shape="1525.60,205.13 1516.85,208.00 1510.54,209.14 1505.62,209.54 1501.41,208.95 1488.53,203.95"/>
    <edge id="2102480576to4233654506" from="2102480576" to="4233654506" priority="-1" numLanes="1" speed="13.89" shape="1525.60,205.13 1529.46,216.53 1531.45,221.00 1533.79,224.47 1536.37,227.79 1538.87,230.56 1541.40,232.72 1549.62,237.73"/>
    <edge id="2102480797to4233524611" from="2102480797" to="4233524611" priority="-1" numLanes="1" speed="13.89" shape="1658.31,301.43 1655.54,298.44 1653.61,297.02 1651.16,295.59 1617.90,280.06"/>
    <edge id="2102480797to4233524615" from="2102480797" to="4233524615" priority="-1" numLanes="1" speed="13.89"/>
    <edge id="2102480797to4233654563" from="2102480797" to="4233654563" priority="-1" numLanes="1" speed="13.89" shape="1658.31,301.43 1663.78,300.45 1667.49,300.59 1671.08,301.66 1694.54,317.75"/>
    <edge id="2102480799to2102480800" from="2102480799" to="2102480800" priority="-1" numLanes="1" speed="13.89"/>
    <edge id="2102480799to2102480801" from="2102480799" to="2102480801" priority="-1" numLanes="1" speed="13.89"/>
    <edge id="2102480799to4233654507" from="2102480799" to="4233654507" priority="-1" numLanes="1" speed="13.89"/>
    <edge id="2102480800to2102480799" from="2102480800" to="2102480799" priority="-1" numLanes="1" speed="13.89"/>
    <edge id="2102480800to2102480803" from="2102480800" to="2102480803" priority="-1" numLanes="1" speed="13.89" shape="1912.72,369.19 1796.08,414.97 1717.47,449.45"/>
    <edge id="2102480800to4233524618" from="2102480800" to="4233524618" priority="-1" numLanes="1" speed="13.89"/>
    <edge id="2102480800to4233654565" from="2102480800" to="4233654565" priority="-1" numLanes="1" speed="13.89"/>
    <edge id="2102480801to2102480799" from="2102480801" to="2102480799" priority="-1" numLanes="1" speed="13.89"/>
    <edge id="2102480801to4233524618" from="2102480801" to="4233524618" priority="-1" numLanes="1" speed="13.89"/>
    <edge id="2102480803to2102480800" from="2102480803" to="2102480800" priority="-1" numLanes="1" speed="13.89" shape="1717.47,449.45 1796.08,414.97 1912.72,369.19"/>
    <edge id="2102480803to2102480808" from="2102480803" to="2102480808" priority="-1" numLanes="1" speed="13.89"/>
    <edge id="2102480803to4233524619" from="2102480803" to="4233524619" priority="-1" numLanes="1" speed="13.89"/>
    <edge id="2102480803to4233524625" from="2102480803" to="4233524625" priority="-1" numLanes="1" speed="13.89"/>
    <edge id="2102480805to4233524646" from="2102480805" to="4233524646" priority="-1" numLanes="1" speed="13.89" shape="1970.40,524.23 1966.37,527.88 1957.87,530.99 1917.63,538.44 1876.19,548.13 1850.74,554.08 1838.65,557.15"/>
    <edge id="2102480805to9186411589" from="2102480805" to="9186411589" priority="-1" numLanes="1" speed="13.89" shape="1970.40,524.23 1971.09,519.02 1969.73,511.09 1935.19,418.31"/>
    <edge id="2102480808to2102480803" from="2102480808" to="2102480803" priority="-1" numLanes="1" speed="13.89"/>
    <edge id="2102480808to4233524646" from="2102480808" to="4233524646" priority="-1" numLanes="1" speed="13.89" shape="1764.08,574.39 1776.10,571.21 1838.65,557.15"/>
    <edge id="301037252to4233527012" from="301037252" to="4233527012" priority="-1" numLanes="1" speed="13.89" shape="546.03,774.78 553.70,801.57 557.26,813.97"/>
    <edge id="301037252to564483461" from="301037252" to="564483461" priority="-1" numLanes="1" speed="13.89" shape="546.03,774.78 541.58,774.95 537.34,773.60 533.82,770.89 531.44,767.14"/>
    <edge id="301037252to564483463" from="301037252" to="564483463" priority="-1" numLanes="1" speed="13.89" shape="546.03,774.78 550.49,773.08 552.83,770.87 554.49,768.35 556.07,763.75 555.71,760.25 554.52,756.09"/>
    <edge id="301037253to301037255" from="301037253" to="301037255" priority="-1" numLanes="1" speed="13.89"/>
    <edge id="301037253to4233527053" from="301037253" to="4233527053" priority="-1" numLanes="1" speed="13.89" shape="396.02,829.48 429.94,904.98 437.70,921.95"/>
    <edge id="301037253to564483461" from="301037253" to="564483461" priority="-1" numLanes="1" speed="13.89"/>
    <edge id="301037254to4233527085" from="301037254" to="4233527085" priority="-1" numLanes="1" speed="13.89" shape="484.77,1023.82 498.57,1055.12 514.58,1091.35"/>
    <edge id="301037254to473651125" from="301037254" to="473651125" priority="-1" numLanes="1" speed="13.89" shape="484.77,1023.82 486.70,1022.48 488.16,1020.63 489.01,1018.44 489.20,1016.10 488.68,1013.81 487.52,1011.76"/>
    <edge id="301037254to564483517" from="301037254" to="564483517" priority="-1" numLanes="1" speed="13.89" shape="484.77,1023.82 482.54,1024.54 480.21,1024.60 477.95,1023.99 475.97,1022.76 474.42,1021.01 473.45,1018.90"/>
    <edge id="301037255to301037253" from="301037255" to="301037253" priority="-1" numLanes="1" speed="13.89"/>
    <edge id="301037255to3636985389" from="301037255" to="3636985389" priority="-1" numLanes="1" speed="13.89" shape="344.72,714.81 440.07,678.62 449.47,677.63 466.68,681.81 478.05,686.12 518.16,701.31"/>
    <edge id="301037255to4233524684" from="301037255" to="4233524684" priority="-1" numLanes="1" speed="13.89"/>
    <edge id="3055043750to3055043751" from="3055043750" to="3055043751" priority="-1" numLanes="1" speed="13.89"/>
    <edge id="3055043750to4233527014" from="3055043750" to="4233527014" priority="-1" numLanes="1" speed="13.89" shape="713.53,723.43 725.86,752.18 726.47,754.06 726.83,757.37 726.86,760.47 726.32,765.03 720.75,800.32 717.83,816.07 710.86,845.86"/>
    <edge id="3055043750to9865522290" from="3055043750" to="9865522290" priority="-1" numLanes="1" speed="13.89" shape="713.53,723.43 815.16,745.44 854.04,754.89 856.52,755.81 858.44,756.99 859.53,758.80 859.39,762.30 857.26,783.87 854.12,808.24"/>
    <edge id="3055043751to3055043750" from="3055043751" to="3055043750" priority="-1" numLanes="1" speed="13.89"/>
    <edge id="3055043751to4233524645" from="3055043751" to="4233524645" priority="-1" numLanes="1" speed="13.89" shape="700.22,690.71 681.67,649.29 677.28,639.49 674.30,631.72 664.16,612.55 662.18,610.34 656.61,606.67 635.67,588.59 628.14,579.04 622.39,570.62 614.74,554.26 610.67,545.86 608.00,537.47 608.22,529.08"/>
    <edge id="3055043751to564483463" from="3055043751" to="564483463" priority="-1" numLanes="1" speed="13.89"/>
    <edge id="3055043752to3178456078" from="3055043752" to="3178456078" priority="-1" numLanes="1" speed="13.89"/>
    <edge id="3055043752to4999072808" from="3055043752" to="4999072808" priority="-1" numLanes="1" speed="13.89" shape="583.32,903.93 598.88,958.73 599.57,961.61 598.94,964.66 597.64,966.54 593.81,969.11"/>
    <edge id="3055043752to6758737653" from="3055043752" to="6758737653" priority="-1" numLanes="1" speed="13.89" shape="583.32,903.93 576.91,882.60 575.80,878.71"/>
    <edge id="3178456078to3055043752" from="3178456078" to="3055043752" priority="-1" numLanes="1" speed="13.89"/>
    <edge id="3178456078to4233527016" from="3178456078" to="4233527016" priority="-1" numLanes="1" speed="13.89"/>
    <edge id="3178456078to4233527043" from="3178456078" to="4233527043" priority="-1" numLanes="1" speed="13.89"/>
    <edge id="3178456078to9835228889" from="3178456078" to="9835228889" priority="-1" numLanes="1" speed="13.89" shape="710.27,906.97 709.73,946.43 707.89,952.22 706.36,955.53 702.08,959.84"/>
    <edge id="3635907904to3636985377" from="3635907904" to="3636985377" priority="-1" numLanes="1" speed="13.89"/>
    <edge id="3635907904to4233524657" from="3635907904" to="4233524657" priority="-1" numLanes="1" speed="13.89"/>
    <edge id="3635907904to4233524660" from="3635907904" to="4233524660" priority="-1" numLanes="1" speed="13.89"/>
    <edge id="3635907910to4233524655" from="3635907910" to="4233524655" priority="-1" numLanes="1" speed="13.89"/>
    <edge id="3635907910to9835190696" from="3635907910" to="9835190696" priority="-1" numLanes="1" speed="13.89"/>
    <edge id="3635907910to9835190697" from="3635907910" to="9835190697" priority="-1" numLanes="1" speed="13.89"/>
    <edge id="3635907914to4233524645" from="3635907914" to="4233524645" priority="-1" numLanes="1" speed="13.89" shape="450.04,527.55 501.39,504.14 516.88,498.96 540.44,493.65 550.58,492.60 555.61,492.75 562.12,494.50 569.75,497.75 577.82,503.13 588.64,511.02 596.40,516.56 602.16,521.63 605.48,525.09 608.22,529.08"/>
    <edge id="3635907914to9835164854" from="3635907914" to="9835164854" priority="-1" numLanes="1" speed="13.89"/>
    <edge id="3635907914to9835164855" from="3635907914" to="9835164855" priority="-1" numLanes="1" speed="13.89" shape="450.04,527.55 427.16,472.86 424.92,470.64 422.60,469.62 420.05,469.79 393.41,481.43"/>
    <edge id="3635907923to4233524639" from="3635907923" to="4233524639" priority="-1" numLanes="1" speed="13.89"/>
    <edge id="3635907923to9835190659" from="3635907923" to="9835190659" priority="-1" numLanes="1" speed="13.89" shape="118.88,512.64 112.04,495.52 97.55,465.09 81.81,434.92 79.01,429.54 72.71,416.97 72.85,415.07 74.70,412.76 77.18,410.14 137.01,371.91"/>
    <edge id="3635907923to9835190696" from="3635907923" to="9835190696" priority="-1" numLanes="1" speed="13.89" shape="118.88,512.64 128.62,538.07 148.31,589.43"/>
    <edge id="3635907929to3635907930" from="3635907929" to="3635907930" priority="-1" numLanes="1" speed="13.89"/>
    <edge id="3635907929to9835190659" from="3635907929" to="9835190659" priority="-1" numLanes="1" speed="13.89" shape="183.71,365.88 179.46,357.50 177.64,355.04 175.12,353.86 171.44,353.30 168.63,353.87 158.65,358.83 137.01,371.91"/>
    <edge id="3635907929to9835190693" from="3635907929" to="9835190693" priority="-1" numLanes="1" speed="13.89"/>
    <edge id="3635907930to3635907929" from="3635907930" to="3635907929" priority="-1" numLanes="1" speed="13.89"/>
    <edge id="3635907930to3635907938" from="3635907930" to="3635907938" priority="-1" numLanes="1" speed="13.89" shape="281.91,304.52 276.84,297.30 275.96,292.17 277.54,287.11 282.07,281.54 290.83,275.63"/>
    <edge id="3635907930to9835190695" from="3635907930" to="9835190695" priority="-1" numLanes="1" speed="13.89"/>
    <edge id="3635907938to3635907930" from="3635907938" to="3635907930" priority="-1" numLanes="1" speed="13.89" shape="290.83,275.63 282.07,281.54 277.54,287.11 275.96,292.17 276.84,297.30 281.91,304.52"/>
    <edge id="3635907938to4233654570" from="3635907938" to="4233654570" priority="-1" numLanes="1" speed="13.89" shape="290.83,275.63 316.55,255.53 321.58,253.32 327.47,253.69 333.14,255.39 363.73,272.64 378.70,279.22 383.39,281.66 387.49,285.09 390.62,292.54 391.24,298.27 389.04,308.10"/>
    <edge id="3636985377to3635907904" from="3636985377" to="3635907904" priority="-1" numLanes="1" speed="13.89"/>
    <edge id="3636985377to3636985378" from="3636985377" to="3636985378" priority="-1" numLanes="1" speed="13.89"/>
    <edge id="3636985377to4233524684" from="3636985377" to="4233524684" priority="-1" numLanes="1" speed="13.89"/>
    <edge id="3636985378to3636985377" from="3636985378" to="3636985377" priority="-1" numLanes="1" speed="13.89"/>
    <edge id="3636985378to3636985385" from="3636985378" to="3636985385" priority="-1" numLanes="1" speed="13.89" shape="194.76,690.59 201.26,709.65 202.42,717.13 201.38,724.31 196.60,738.62"/>
    <edge id="3636985378to6095495876" from="3636985378" to="6095495876" priority="-1" numLanes="1" speed="13.89" shape="194.76,690.59 158.63,704.37 154.03,707.49 150.89,711.14 146.42,725.64 143.27,730.00 139.43,732.83 135.09,733.24 126.84,732.74 97.92,725.63 89.09,721.00 85.70,717.10 82.81,710.07 54.72,641.64"/>
    <edge id="3636985378to9835190697" from="3636985378" to="9835190697" priority="-1" numLanes="1" speed="13.89"/>
    <edge id="3636985385to3636985378" from="3636985385" to="3636985378" priority="-1" numLanes="1" speed="13.89" shape="196.60,738.62 201.38,724.31 202.42,717.13 201.26,709.65 194.76,690.59"/>
    <edge id="3636985386to3636985389" from="3636985386" to="3636985389" priority="-1" numLanes="1" speed="13.89" shape="536.42,736.69 533.39,720.85 531.03,712.24 528.45,707.77 524.19,704.10 518.16,701.31"/>
    <edge id="3636985386to564483459" from="3636985386" to="564483459" priority="-1" numLanes="1" speed="13.89"/>
    <edge id="3636985389to301037255" from="3636985389" to="301037255" priority="-1" numLanes="1" speed="13.89" shape="518.16,701.31 478.05,686.12 466.68,681.81 449.47,677.63 440.07,678.62 344.72,714.81"/>
    <edge id="3636985389to3636985386" from="3636985389" to="3636985386" priority="-1" numLanes="1" speed="13.89" shape="518.16,701.31 524.19,704.10 528.45,707.77 531.03,712.24 533.39,720.85 536.42,736.69"/>
    <edge id="4233524596to4233524597" from="4233524596" to="4233524597" priority="-1" numLanes="1" speed="13.89"/>
    <edge id="4233524596to4233524600" from="4233524596" to="4233524600" priority="-1" numLanes="1" speed="13.89" shape="1868.41,0.00 1887.85,66.32 1887.61,69.12 1886.99,72.08 1875.43,95.70"/>
    <edge id="4233524597to2102480543" from="4233524597" to="2102480543" priority="-1" numLanes="1" speed="13.89"/>
    <edge id="4233524597to4233524596" from="4233524597" to="4233524596" priority="-1" numLanes="1" speed="13.89"/>
    <edge id="4233524597to4233654441" from="4233524597" to="4233654441" priority="-1" numLanes="1" speed="13.89"/>
    <edge id="4233524600to2102480543" from="4233524600" to="2102480543" priority="-1" numLanes="1" speed="13.89" shape="1875.43,95.70 1837.90,84.02 1833.15,83.05 1828.39,83.12 1824.37,84.26 1802.91,92.88"/>
    <edge id="4233524600to4233524596" from="4233524600" to="4233524596" priority="-1" numLanes="1" speed="13.89" shape="1875.43,95.70 1886.99,72.08 1887.61,69.12 1887.85,66.32 1868.41,0.00"/>
    <edge id="4233524600to4233524604" from="4233524600" to="4233524604" priority="-1" numLanes="1" speed="13.89" shape="1875.43,95.70 1910.17,106.38 1911.78,107.25 1912.18,107.88 1912.31,108.83 1889.40,153.71"/>
    <edge id="4233524600to9186411596" from="4233524600" to="9186411596" priority="-1" numLanes="1" speed="13.89" shape="1875.43,95.70 1854.63,139.29 1835.98,176.60"/>
    <edge id="4233524604to4233524600" from="4233524604" to="4233524600" priority="-1" numLanes="1" speed="13.89" shape="1889.40,153.71 1912.31,108.83 1912.18,107.88 1911.78,107.25 1910.17,106.38 1875.43,95.70"/>
    <edge id="4233524606to4233524608" from="4233524606" to="4233524608" priority="-1" numLanes="1" speed="13.89" shape="1910.89,175.70 1909.83,219.05 1910.87,225.60 1912.32,229.94"/>
    <edge id="4233524607to4233524610" from="4233524607" to="4233524610" priority="-1" numLanes="1" speed="13.89"/>
    <edge id="4233524607to4233654488" from="4233524607" to="4233654488" priority="-1" numLanes="1" speed="13.89"/>
    <edge id="4233524607to9186411596" from="4233524607" to="9186411596" priority="-1" numLanes="1" speed="13.89"/>
    <edge id="4233524608to4233524606" from="4233524608" to="4233524606" priority="-1" numLanes="1" speed="13.89" shape="1912.32,229.94 1910.87,225.60 1909.83,219.05 1910.89,175.70"/>
    <edge id="4233524608to4233524610" from="4233524608" to="4233524610" priority="-1" numLanes="1" speed="13.89"/>
    <edge id="4233524608to4233654507" from="4233524608" to="4233654507" priority="-1" numLanes="1" speed="13.89"/>
    <edge id="4233524610to4233524607" from="4233524610" to="4233524607" priority="-1" numLanes="1" speed="13.89"/>
    <edge id="4233524610to4233524608" from="4233524610" to="4233524608" priority="-1" numLanes="1" speed="13.89"/>
    <edge id="4233524610to4233654514" from="4233524610" to="4233654514" priority="-1" numLanes="1" speed="13.89"/>
    <edge id="4233524610to4233654565" from="4233524610" to="4233654565" priority="-1" numLanes="1" speed="13.89"/>
    <edge id="4233524611to2102480797" from="4233524611" to="2102480797" priority="-1" numLanes="1" speed="13.89" shape="1617.90,280.06 1651.16,295.59 1653.61,297.02 1655.54,298.44 1658.31,301.43"/>
    <edge id="4233524611to4233524616" from="4233524611" to="4233524616" priority="-1" numLanes="1" speed="13.89" shape="1617.90,280.06 1615.69,286.02 1615.13,289.93 1615.73,294.45 1632.91,340.14"/>
    <edge id="4233524611to4233654506" from="4233524611" to="4233654506" priority="-1" numLanes="1" speed="13.89" shape="1617.90,280.06 1555.59,241.30 1549.62,237.73"/>
    <edge id="4233524611to4233654517" from="4233524611" to="4233654517" priority="-1" numLanes="1" speed="13.89" shape="1617.90,280.06 1622.66,276.35 1626.55,274.27 1639.66,267.78 1662.88,256.68"/>
    <edge id="4233524615to2102480797" from="4233524615" to="2102480797" priority="-1" numLanes="1" speed="13.89"/>
    <edge id="4233524615to4233524616" from="4233524615" to="4233524616" priority="-1" numLanes="1" speed="13.89"/>
    <edge id="4233524615to4233524619" from="4233524615" to="4233524619" priority="-1" numLanes="1" speed="13.89"/>
    <edge id="4233524615to4233654563" from="4233524615" to="4233654563" priority="-1" numLanes="1" speed="13.89"/>
    <edge id="4233524616to4233524611" from="4233524616" to="4233524611" priority="-1" numLanes="1" speed="13.89" shape="1632.91,340.14 1615.73,294.45 1615.13,289.93 1615.69,286.02 1617.90,280.06"/>
    <edge id="4233524616to4233524615" from="4233524616" to="4233524615" priority="-1" numLanes="1" speed="13.89"/>
    <edge id="4233524616to4233524617" from="4233524616" to="4233524617" priority="-1" numLanes="1" speed="13.89"/>
    <edge id="4233524616to4233524620" from="4233524616" to="4233524620" priority="-1" numLanes="1" speed="13.89" shape="1632.91,340.14 1651.02,381.99 1654.95,390.28 1656.23,391.72 1657.53,392.59 1659.03,392.58 1660.72,392.12 1674.93,385.47"/>
    <edge id="4233524617to4233524616" from="4233524617" to="4233524616" priority="-1" numLanes="1" speed="13.89"/>
    <edge id="4233524618to2102480800" from="4233524618" to="2102480800" priority="-1" numLanes="1" speed="13.89"/>
    <edge id="4233524618to2102480801" from="4233524618" to="2102480801" priority="-1" numLanes="1" speed="13.89"/>
    <edge id="4233524618to9186411589" from="4233524618" to="9186411589" priority="-1" numLanes="1" speed="13.89"/>
    <edge id="4233524619to2102480803" from="4233524619" to="2102480803" priority="-1" numLanes="1" speed="13.89"/>
    <edge id="4233524619to4233524615" from="4233524619" to="4233524615" priority="-1" numLanes="1" speed="13.89"/>
    <edge id="4233524619to4233524620" from="4233524619" to="4233524620" priority="-1" numLanes="1" speed="13.89"/>
    <edge id="4233524620to4233524616" from="4233524620" to="4233524616" priority="-1" numLanes="1" speed="13.89" shape="1674.93,385.47 1660.72,392.12 1659.03,392.58 1657.53,392.59 1656.23,391.72 1654.95,390.28 1651.02,381.99 1632.91,340.14"/>
    <edge id="4233524620to4233524619" from="4233524620" to="4233524619" priority="-1" numLanes="1" speed="13.89"/>
    <edge id="4233524620to4233524625" from="4233524620" to="4233524625" priority="-1" numLanes="1" speed="13.89"/>
    <edge id="4233524625to2102480803" from="4233524625" to="2102480803" priority="-1" numLanes="1" speed="13.89"/>
    <edge id="4233524625to4233524620" from="4233524625" to="4233524620" priority="-1" numLanes="1" speed="13.89"/>
    <edge id="4233524625to4233524653" from="4233524625" to="4233524653" priority="-1" numLanes="1" speed="13.89"/>
    <edge id="4233524626to4233524633" from="4233524626" to="4233524633" priority="-1" numLanes="1" speed="13.89" shape="356.10,434.27 339.54,439.65 337.92,440.55 337.24,442.08 337.91,444.63 352.34,472.36"/>
    <edge id="4233524630to4233524636" from="4233524630" to="4233524636" priority="-1" numLanes="1" speed="13.89"/>
    <edge id="4233524630to564483317" from="4233524630" to="564483317" priority="-1" numLanes="1" speed="13.89"/>
    <edge id="4233524630to9835190693" from="4233524630" to="9835190693" priority="-1" numLanes="1" speed="13.89"/>
    <edge id="4233524633to4233524626" from="4233524633" to="4233524626" priority="-1" numLanes="1" speed="13.89" shape="352.34,472.36 337.91,444.63 337.24,442.08 337.92,440.55 339.54,439.65 356.10,434.27"/>
    <edge id="4233524633to4233524637" from="4233524633" to="4233524637" priority="-1" numLanes="1" speed="13.89"/>
    <edge id="4233524633to4233524638" from="4233524633" to="4233524638" priority="-1" numLanes="1" speed="13.89"/>
    <edge id="4233524636to4233524630" from="4233524636" to="4233524630" priority="-1" numLanes="1" speed="13.89"/>
    <edge id="4233524636to4233524639" from="4233524636" to="4233524639" priority="-1" numLanes="1" speed="13.89"/>
    <edge id="4233524636to9835190659" from="4233524636" to="9835190659" priority="-1" numLanes="1" speed="13.89" shape="173.11,487.76 161.44,464.68 141.24,419.88 133.85,400.11 133.16,396.75 133.49,392.77 134.85,386.34 137.01,371.91"/>
    <edge id="4233524637to4233524633" from="4233524637" to="4233524633" priority="-1" numLanes="1" speed="13.89"/>
    <edge id="4233524638to4233524633" from="4233524638" to="4233524633" priority="-1" numLanes="1" speed="13.89"/>
    <edge id="4233524638to4233524644" from="4233524638" to="4233524644" priority="-1" numLanes="1" speed="13.89"/>
    <edge id="4233524638to4233524652" from="4233524638" to="4233524652" priority="-1" numLanes="1" speed="13.89"/>
    <edge id="4233524638to9835164855" from="4233524638" to="9835164855" priority="-1" numLanes="1" speed="13.89"/>
    <edge id="4233524639to3635907923" from="4233524639" to="3635907923" priority="-1" numLanes="1" speed="13.89"/>
    <edge id="4233524639to4233524636" from="4233524639" to="4233524636" priority="-1" numLanes="1" speed="13.89"/>
    <edge id="4233524639to4233524641" from="4233524639" to="4233524641" priority="-1" numLanes="1" speed="13.89"/>
    <edge id="4233524641to4233524639" from="4233524641" to="4233524639" priority="-1" numLanes="1" speed="13.89"/>
    <edge id="4233524644to4233524638" from="4233524644" to="4233524638" priority="-1" numLanes="1" speed="13.89"/>
    <edge id="4233524644to4233524647" from="4233524644" to="4233524647" priority="-1" numLanes="1" speed="13.89"/>
    <edge id="4233524644to4233524656" from="4233524644" to="4233524656" priority="-1" numLanes="1" speed="13.89"/>
    <edge id="4233524645to3055043751" from="4233524645" to="3055043751" priority="-1" numLanes="1" speed="13.89" shape="608.22,529.08 608.00,537.47 610.67,545.86 614.74,554.26 622.39,570.62 628.14,579.04 635.67,588.59 656.61,606.67 662.18,610.34 664.16,612.55 674.30,631.72 677.28,639.49 681.67,649.29 700.22,690.71"/>
    <edge id="4233524645to3635907914" from="4233524645" to="3635907914" priority="-1" numLanes="1" speed="13.89" shape="608.22,529.08 605.48,525.09 602.16,521.63 596.40,516.56 588.64,511.02 577.82,503.13 569.75,497.75 562.12,494.50 555.61,492.75 550.58,492.60 540.44,493.65 516.88,498.96 501.39,504.14 450.04,527.55"/>
    <edge id="4233524645to4233654625" from="4233524645" to="4233654625" priority="-1" numLanes="1" speed="13.89"/>
    <edge id="4233524646to2102480805" from="4233524646" to="2102480805" priority="-1" numLanes="1" speed="13.89" shape="1838.65,557.15 1850.74,554.08 1876.19,548.13 1917.63,538.44 1957.87,530.99 1966.37,527.88 1970.40,524.23"/>
    <edge id="4233524646to2102480808" from="4233524646" to="2102480808" priority="-1" numLanes="1" speed="13.89" shape="1838.65,557.15 1776.10,571.21 1764.08,574.39"/>
    <edge id="4233524646to4233524659" from="4233524646" to="4233524659" priority="-1" numLanes="1" speed="13.89"/>
    <edge id="4233524647to4233524644" from="4233524647" to="4233524644" priority="-1" numLanes="1" speed="13.89"/>
    <edge id="4233524647to4233524660" from="4233524647" to="4233524660" priority="-1" numLanes="1" speed="13.89"/>
    <edge id="4233524647to564483317" from="4233524647" to="564483317" priority="-1" numLanes="1" speed="13.89"/>
    <edge id="4233524648to4233524655" from="4233524648" to="4233524655" priority="-1" numLanes="1" speed="13.89" shape="193.92,533.37 214.75,539.76 217.20,541.10 218.72,542.78 218.93,545.14 215.94,563.18"/>
    <edge id="4233524652to4233524638" from="4233524652" to="4233524638" priority="-1" numLanes="1" speed="13.89"/>
    <edge id="4233524652to4233524656" from="4233524652" to="4233524656" priority="-1" numLanes="1" speed="13.89"/>
    <edge id="4233524652to9835164854" from="4233524652" to="9835164854" priority="-1" numLanes="1" speed="13.89"/>
    <edge id="4233524653to4233524625" from="4233524653" to="4233524625" priority="-1" numLanes="1" speed="13.89"/>
    <edge id="4233524653to4233524667" from="4233524653" to="4233524667" priority="-1" numLanes="1" speed="13.89" shape="1752.20,577.95 1742.94,581.01 1745.63,601.87 1751.30,628.91 1751.18,630.85 1750.20,633.36 1747.59,636.13 1744.12,638.30"/>
    <edge id="4233524655to3635907910" from="4233524655" to="3635907910" priority="-1" numLanes="1" speed="13.89"/>
    <edge id="4233524655to4233524648" from="4233524655" to="4233524648" priority="-1" numLanes="1" speed="13.89" shape="215.94,563.18 218.93,545.14 218.72,542.78 217.20,541.10 214.75,539.76 193.92,533.37"/>
    <edge id="4233524655to564483317" from="4233524655" to="564483317" priority="-1" numLanes="1" speed="13.89"/>
    <edge id="4233524656to4233524644" from="4233524656" to="4233524644" priority="-1" numLanes="1" speed="13.89"/>
    <edge id="4233524656to4233524652" from="4233524656" to="4233524652" priority="-1" numLanes="1" speed="13.89"/>
    <edge id="4233524656to4233524660" from="4233524656" to="4233524660" priority="-1" numLanes="1" speed="13.89"/>
    <edge id="4233524657to3635907904" from="4233524657" to="3635907904" priority="-1" numLanes="1" speed="13.89"/>
    <edge id="4233524657to4233524665" from="4233524657" to="4233524665" priority="-1" numLanes="1" speed="13.89"/>
    <edge id="4233524657to564483317" from="4233524657" to="564483317" priority="-1" numLanes="1" speed="13.89"/>
    <edge id="4233524659to4233524646" from="4233524659" to="4233524646" priority="-1" numLanes="1" speed="13.89"/>
    <edge id="4233524660to3635907904" from="4233524660" to="3635907904" priority="-1" numLanes="1" speed="13.89"/>
    <edge id="4233524660to4233524647" from="4233524660" to="4233524647" priority="-1" numLanes="1" speed="13.89"/>
    <edge id="4233524660to4233524656" from="4233524660" to="4233524656" priority="-1" numLanes="1" speed="13.89"/>
    <edge id="4233524665to4233524657" from="4233524665" to="4233524657" priority="-1" numLanes="1" speed="13.89"/>
    <edge id="4233524667to4233524653" from="4233524667" to="4233524653" priority="-1" numLanes="1" speed="13.89" shape="1744.12,638.30 1747.59,636.13 1750.20,633.36 1751.18,630.85 1751.30,628.91 1745.63,601.87 1742.94,581.01 1752.20,577.95"/>
    <edge id="4233524684to301037255" from="4233524684" to="301037255" priority="-1" numLanes="1" speed="13.89"/>
    <edge id="4233524684to3636985377" from="4233524684" to="3636985377" priority="-1" numLanes="1" speed="13.89"/>
    <edge id="4233524684to6380513447" from="4233524684" to="6380513447" priority="-1" numLanes="1" speed="13.89" shape="332.62,690.89 316.75,694.10 310.62,694.40 261.93,684.44 255.89,684.36 252.80,685.66 247.95,691.12"/>
    <edge id="4233527006to4233527018" from="4233527006" to="4233527018" priority="-1" numLanes="1" speed="13.89"/>
    <edge id="4233527008to4233527020" from="4233527008" to="4233527020" priority="-1" numLanes="1" speed="13.89"/>
    <edge id="4233527012to301037252" from="4233527012" to="301037252" priority="-1" numLanes="1" speed="13.89" shape="557.26,813.97 553.70,801.57 546.03,774.78"/>
    <edge id="4233527012to4233527014" from="4233527012" to="4233527014" priority="-1" numLanes="1" speed="13.89" shape="557.26,813.97 627.81,789.29 635.10,787.57 643.15,788.27 649.63,790.96 654.01,794.48 670.41,818.42 678.21,827.84 688.00,835.72 710.86,845.86"/>
    <edge id="4233527012to6758737653" from="4233527012" to="6758737653" priority="-1" numLanes="1" speed="13.89"/>